data_image0
_cell_length_a       53.5086
_cell_length_b       53.5091
_cell_length_c       53.5083
_cell_angle_alpha    89.9998
_cell_angle_beta     89.9976
_cell_angle_gamma    90.0015

_symmetry_space_group_name_H-M    "P 1"
_symmetry_int_tables_number       1

loop_
  _symmetry_equiv_pos_as_xyz
  'x, y, z'

loop_
  _atom_site_label
  _atom_site_occupancy
  _atom_site_fract_x
  _atom_site_fract_y
  _atom_site_fract_z
  _atom_site_thermal_displace_type
  _atom_site_B_iso_or_equiv
  _atom_site_type_symbol
  _atom_site_charge
  N1       1.0000 0.34953  0.34902  0.34905  Biso   1.000  N  -0.1358781490668833
  N2       1.0000 0.34878  0.84941  0.84943  Biso   1.000  N  -0.1358781490668833
  N3       1.0000 0.84918  0.34947  0.84904  Biso   1.000  N  -0.1358781490668833
  N4       1.0000 0.84908  0.84897  0.34927  Biso   1.000  N  -0.1358781490668833
  N5       1.0000 0.65115  0.65092  0.34950  Biso   1.000  N  -0.1358781490668833
  N6       1.0000 0.65055  0.15093  0.84918  Biso   1.000  N  -0.1358781490668833
  N7       1.0000 0.15108  0.65073  0.84914  Biso   1.000  N  -0.1358781490668833
  N8       1.0000 0.15061  0.15064  0.34878  Biso   1.000  N  -0.1358781490668833
  N9       1.0000 0.65068  0.34921  0.65103  Biso   1.000  N  -0.1358781490668833
  N10      1.0000 0.65094  0.84913  0.15077  Biso   1.000  N  -0.1358781490668833
  N11      1.0000 0.15053  0.34914  0.15085  Biso   1.000  N  -0.1358781490668833
  N12      1.0000 0.15103  0.84912  0.65051  Biso   1.000  N  -0.1358781490668833
  N13      1.0000 0.34896  0.65062  0.65084  Biso   1.000  N  -0.1358781490668833
  N14      1.0000 0.34935  0.15101  0.15117  Biso   1.000  N  -0.1358781490668833
  N15      1.0000 0.84919  0.65116  0.15063  Biso   1.000  N  -0.1358781490668833
  N16      1.0000 0.84930  0.15064  0.65079  Biso   1.000  N  -0.1358781490668833
  N17      1.0000 0.34928  0.34914  0.65117  Biso   1.000  N  -0.1358781490668833
  N18      1.0000 0.34903  0.84921  0.15080  Biso   1.000  N  -0.1358781490668833
  N19      1.0000 0.84944  0.34920  0.15090  Biso   1.000  N  -0.1358781490668833
  N20      1.0000 0.84891  0.84910  0.65062  Biso   1.000  N  -0.1358781490668833
  N21      1.0000 0.65126  0.65074  0.65074  Biso   1.000  N  -0.1358781490668833
  N22      1.0000 0.65042  0.15100  0.15103  Biso   1.000  N  -0.1358781490668833
  N23      1.0000 0.15100  0.65096  0.15053  Biso   1.000  N  -0.1358781490668833
  N24      1.0000 0.15070  0.15060  0.65091  Biso   1.000  N  -0.1358781490668833
  N25      1.0000 0.34911  0.65087  0.34924  Biso   1.000  N  -0.1358781490668833
  N26      1.0000 0.34918  0.15065  0.84911  Biso   1.000  N  -0.1358781490668833
  N27      1.0000 0.84896  0.65086  0.84936  Biso   1.000  N  -0.1358781490668833
  N28      1.0000 0.84947  0.15083  0.34906  Biso   1.000  N  -0.1358781490668833
  N29      1.0000 0.65059  0.34899  0.34919  Biso   1.000  N  -0.1358781490668833
  N30      1.0000 0.65105  0.84927  0.84946  Biso   1.000  N  -0.1358781490668833
  N31      1.0000 0.15065  0.34941  0.84884  Biso   1.000  N  -0.1358781490668833
  N32      1.0000 0.15091  0.84907  0.34920  Biso   1.000  N  -0.1358781490668833
  O1       1.0000 0.09048  0.02453  0.12390  Biso   1.000  O  -0.4221729374170397
  O2       1.0000 0.11952  0.02463  0.15314  Biso   1.000  O  -0.4222209511976119
  C1       1.0000 0.09920  0.03314  0.14422  Biso   1.000  C  0.6871253589639147
  C2       1.0000 0.08587  0.05368  0.15720  Biso   1.000  C  -0.0122848725318986
  C3       1.0000 0.09414  0.06237  0.18056  Biso   1.000  C  -0.1038683047155851
  H1       1.0000 0.10994  0.05343  0.18951  Biso   1.000  H  0.1351617084746938
  O3       1.0000 0.90976  0.97590  0.12476  Biso   1.000  O  -0.4221729374170397
  O4       1.0000 0.88078  0.97595  0.15406  Biso   1.000  O  -0.4221729374170397
  C4       1.0000 0.90104  0.96738  0.14514  Biso   1.000  C  0.7126431549636361
  C5       1.0000 0.91431  0.94692  0.15823  Biso   1.000  C  -0.0122636898865909
  C6       1.0000 0.90575  0.93817  0.18145  Biso   1.000  C  -0.1048485581128599
  H2       1.0000 0.88977  0.94703  0.19016  Biso   1.000  H  0.1351617084746938
  O5       1.0000 0.02443  0.12489  0.08925  Biso   1.000  O  -0.4221729374170397
  O6       1.0000 0.02453  0.15420  0.11822  Biso   1.000  O  -0.4221729374170397
  C7       1.0000 0.03300  0.14527  0.09791  Biso   1.000  C  0.7159076442791230
  C8       1.0000 0.05353  0.15825  0.08460  Biso   1.000  C  -0.0119772664224163
  C9       1.0000 0.06217  0.18163  0.09286  Biso   1.000  C  -0.1041901522862805
  H3       1.0000 0.05314  0.19062  0.10859  Biso   1.000  H  0.1353432987476172
  O7       1.0000 0.97565  0.87620  0.09064  Biso   1.000  O  -0.4221729374170397
  O8       1.0000 0.97562  0.84699  0.11971  Biso   1.000  O  -0.4222209511976119
  C10      1.0000 0.96708  0.85587  0.09940  Biso   1.000  C  0.7159076442791230
  C11      1.0000 0.94662  0.84277  0.08610  Biso   1.000  C  -0.0116768544177920
  C12      1.0000 0.93788  0.81953  0.09462  Biso   1.000  C  -0.1034383429738552
  H4       1.0000 0.94673  0.81082  0.11061  Biso   1.000  H  0.1353432987476172
  O9       1.0000 0.12504  0.09001  0.02402  Biso   1.000  O  -0.4221729374170397
  O10      1.0000 0.15434  0.11899  0.02391  Biso   1.000  O  -0.4221729374170397
  C13      1.0000 0.14541  0.09875  0.03253  Biso   1.000  C  0.7126431549636361
  C14      1.0000 0.15846  0.08555  0.05306  Biso   1.000  C  -0.0122636898865909
  C15      1.0000 0.18167  0.09412  0.06183  Biso   1.000  C  -0.1034904595486104
  H5       1.0000 0.19042  0.11005  0.05291  Biso   1.000  H  0.1353432987476172
  O11      1.0000 0.87575  0.91012  0.02470  Biso   1.000  O  -0.4221729374170397
  O12      1.0000 0.84652  0.88106  0.02478  Biso   1.000  O  -0.4221729374170397
  C16      1.0000 0.85543  0.90135  0.03332  Biso   1.000  C  0.7159076442791230
  C17      1.0000 0.84238  0.91459  0.05384  Biso   1.000  C  -0.0122636898865909
  C18      1.0000 0.81917  0.90601  0.06258  Biso   1.000  C  -0.1048485581128599
  H6       1.0000 0.81045  0.89007  0.05367  Biso   1.000  H  0.1254773405370029
  O13      1.0000 0.97579  0.09070  0.12377  Biso   1.000  O  -0.4221729374170397
  O14      1.0000 0.97589  0.11988  0.15287  Biso   1.000  O  -0.4221729374170397
  C19      1.0000 0.96732  0.09953  0.14412  Biso   1.000  C  0.7026345768003519
  C20      1.0000 0.94692  0.08628  0.15738  Biso   1.000  C  -0.0118976856513891
  C21      1.0000 0.93831  0.09486  0.18065  Biso   1.000  C  -0.1034383429738552
  H7       1.0000 0.94722  0.11085  0.18929  Biso   1.000  H  0.1351617084746938
  O15      1.0000 0.02450  0.91030  0.12486  Biso   1.000  O  -0.4221729374170397
  O16      1.0000 0.02454  0.88125  0.15410  Biso   1.000  O  -0.4222209511976119
  C22      1.0000 0.03305  0.90156  0.14521  Biso   1.000  C  0.7159076442791230
  C23      1.0000 0.05357  0.91485  0.15823  Biso   1.000  C  -0.0119772664224163
  C24      1.0000 0.06224  0.90654  0.18158  Biso   1.000  C  -0.1041901522862805
  H8       1.0000 0.05326  0.89075  0.19052  Biso   1.000  H  0.1353432987476172
  O17      1.0000 0.12466  0.97565  0.08983  Biso   1.000  O  -0.4221729374170397
  O18      1.0000 0.15391  0.97563  0.11886  Biso   1.000  O  -0.4222209511976119
  C25      1.0000 0.14501  0.96709  0.09855  Biso   1.000  C  0.7026345768003519
  C26      1.0000 0.15801  0.94657  0.08524  Biso   1.000  C  -0.0122857281426626
  C27      1.0000 0.18136  0.93787  0.09353  Biso   1.000  C  -0.1041901522862805
  H9       1.0000 0.19029  0.94682  0.10934  Biso   1.000  H  0.1353432987476172
  O19      1.0000 0.87547  0.02472  0.09068  Biso   1.000  O  -0.4221729374170397
  O20      1.0000 0.84640  0.02478  0.11989  Biso   1.000  O  -0.4221729374170397
  C28      1.0000 0.85515  0.03326  0.09952  Biso   1.000  C  0.7126431549636361
  C29      1.0000 0.84190  0.05360  0.08622  Biso   1.000  C  -0.0129528234078125
  C30      1.0000 0.81867  0.06227  0.09480  Biso   1.000  C  -0.1048485581128599
  H10      1.0000 0.81006  0.05346  0.11087  Biso   1.000  H  0.1353545344044522
  O21      1.0000 0.90897  0.12410  0.02434  Biso   1.000  O  -0.4221729374170397
  O22      1.0000 0.87982  0.15324  0.02443  Biso   1.000  O  -0.4222209511976119
  C31      1.0000 0.90020  0.14443  0.03289  Biso   1.000  C  0.7159076442791230
  C32      1.0000 0.91359  0.15762  0.05323  Biso   1.000  C  -0.0120855947804846
  C33      1.0000 0.90506  0.18085  0.06198  Biso   1.000  C  -0.1034904595486104
  H11      1.0000 0.88897  0.18948  0.05324  Biso   1.000  H  0.1353432987476172
  O23      1.0000 0.08979  0.87543  0.02425  Biso   1.000  O  -0.4221729374170397
  O24      1.0000 0.11884  0.84621  0.02423  Biso   1.000  O  -0.4222209511976119
  C34      1.0000 0.09854  0.85510  0.03280  Biso   1.000  C  0.7159076442791230
  C35      1.0000 0.08530  0.84210  0.05337  Biso   1.000  C  -0.0118841025737058
  C36      1.0000 0.09363  0.81875  0.06205  Biso   1.000  C  -0.1038683047155851
  H12      1.0000 0.10939  0.80981  0.05303  Biso   1.000  H  0.1308941163513784
  O25      1.0000 0.91004  0.02467  0.12458  Biso   1.000  O  -0.4221729374170397
  O26      1.0000 0.88112  0.02477  0.15394  Biso   1.000  O  -0.4222209511976119
  C37      1.0000 0.90142  0.03324  0.14496  Biso   1.000  C  0.7159076442791230
  C38      1.0000 0.91483  0.05374  0.15790  Biso   1.000  C  -0.0118841025737058
  C39      1.0000 0.90666  0.06243  0.18130  Biso   1.000  C  -0.1038683047155851
  H13      1.0000 0.89089  0.05349  0.19030  Biso   1.000  H  0.1309278840303973
  O27      1.0000 0.09069  0.97574  0.12430  Biso   1.000  O  -0.4221729374170397
  O28      1.0000 0.11978  0.97578  0.15349  Biso   1.000  O  -0.4221729374170397
  C40      1.0000 0.09946  0.96724  0.14466  Biso   1.000  C  0.7078182762814196
  C41      1.0000 0.08617  0.94684  0.15784  Biso   1.000  C  -0.0120855947804846
  C42      1.0000 0.09473  0.93812  0.18107  Biso   1.000  C  -0.1048485581128599
  H14      1.0000 0.11074  0.94696  0.18974  Biso   1.000  H  0.1308941163513784
  O29      1.0000 0.02445  0.87603  0.09067  Biso   1.000  O  -0.4221729374170397
  O30      1.0000 0.02448  0.84683  0.11975  Biso   1.000  O  -0.4221729374170397
  C43      1.0000 0.03299  0.85568  0.09942  Biso   1.000  C  0.7181012984560450
  C44      1.0000 0.05339  0.84251  0.08608  Biso   1.000  C  -0.0116768544177920
  C45      1.0000 0.06214  0.81929  0.09463  Biso   1.000  C  -0.1034383429738552
  H15      1.0000 0.05334  0.81062  0.11067  Biso   1.000  H  0.1353432987476172
  O31      1.0000 0.97564  0.12480  0.08939  Biso   1.000  O  -0.4221729374170397
  O32      1.0000 0.97572  0.15411  0.11837  Biso   1.000  O  -0.4222209511976119
  C46      1.0000 0.96710  0.14516  0.09812  Biso   1.000  C  0.7181012984560450
  C47      1.0000 0.94647  0.15812  0.08495  Biso   1.000  C  -0.0120456857668748
  C48      1.0000 0.93782  0.18148  0.09328  Biso   1.000  C  -0.1038683047155851
  H16      1.0000 0.94692  0.19047  0.10897  Biso   1.000  H  0.1353432987476172
  O33      1.0000 0.87464  0.09000  0.02437  Biso   1.000  O  -0.4221729374170397
  O34      1.0000 0.84533  0.11897  0.02440  Biso   1.000  O  -0.4221729374170397
  C49      1.0000 0.85428  0.09870  0.03293  Biso   1.000  C  0.7126431549636361
  C50      1.0000 0.84132  0.08543  0.05348  Biso   1.000  C  -0.0120855947804846
  C51      1.0000 0.81796  0.09369  0.06217  Biso   1.000  C  -0.1041901522862805
  H17      1.0000 0.80894  0.10941  0.05315  Biso   1.000  H  0.1353432987476172
  O35      1.0000 0.12411  0.90954  0.02418  Biso   1.000  O  -0.4221729374170397
  O36      1.0000 0.15332  0.88047  0.02414  Biso   1.000  O  -0.4221729374170397
  C52      1.0000 0.14447  0.90078  0.03270  Biso   1.000  C  0.7181012984560450
  C53      1.0000 0.15763  0.91404  0.05315  Biso   1.000  C  -0.0121502360574332
  C54      1.0000 0.18085  0.90546  0.06187  Biso   1.000  C  -0.1048485581128599
  H18      1.0000 0.18954  0.88948  0.05299  Biso   1.000  H  0.1351617084746938
  O37      1.0000 0.97578  0.91026  0.12504  Biso   1.000  O  -0.4221729374170397
  O38      1.0000 0.97576  0.88120  0.15426  Biso   1.000  O  -0.4221729374170397
  C55      1.0000 0.96727  0.90153  0.14541  Biso   1.000  C  0.7078182762814196
  C56      1.0000 0.94682  0.91484  0.15850  Biso   1.000  C  -0.0120456857668748
  C57      1.0000 0.93814  0.90649  0.18185  Biso   1.000  C  -0.1038683047155851
  H19      1.0000 0.94708  0.89065  0.19074  Biso   1.000  H  0.1353432987476172
  O39      1.0000 0.02461  0.09063  0.12345  Biso   1.000  O  -0.4221729374170397
  O40      1.0000 0.02473  0.11980  0.15256  Biso   1.000  O  -0.4222209511976119
  C58      1.0000 0.03325  0.09946  0.14373  Biso   1.000  C  0.6871253589639147
  C59      1.0000 0.05376  0.08621  0.15683  Biso   1.000  C  -0.0120456857668748
  C60      1.0000 0.06246  0.09477  0.18007  Biso   1.000  C  -0.1034383429738552
  H20      1.0000 0.05356  0.11074  0.18877  Biso   1.000  H  0.1353545344044522
  O41      1.0000 0.87555  0.97600  0.09054  Biso   1.000  O  -0.4221729374170397
  O42      1.0000 0.84641  0.97600  0.11969  Biso   1.000  O  -0.4222209511976119
  C61      1.0000 0.85521  0.96749  0.09933  Biso   1.000  C  0.7026345768003519
  C62      1.0000 0.84212  0.94702  0.08601  Biso   1.000  C  -0.0118841025737058
  C63      1.0000 0.81878  0.93832  0.09436  Biso   1.000  C  -0.1038683047155851
  H21      1.0000 0.80989  0.94722  0.11022  Biso   1.000  H  0.1353432987476172
  O43      1.0000 0.12504  0.02436  0.08997  Biso   1.000  O  -0.4221729374170397
  O44      1.0000 0.15425  0.02441  0.11904  Biso   1.000  O  -0.4221729374170397
  C64      1.0000 0.14543  0.03286  0.09868  Biso   1.000  C  0.7078182762814196
  C65      1.0000 0.15858  0.05322  0.08530  Biso   1.000  C  -0.0120855947804846
  C66      1.0000 0.18192  0.06189  0.09367  Biso   1.000  C  -0.1038683047155851
  H22      1.0000 0.19075  0.05303  0.10959  Biso   1.000  H  0.1353545344044522
  O45      1.0000 0.90997  0.87587  0.02446  Biso   1.000  O  -0.4221729374170397
  O46      1.0000 0.88088  0.84668  0.02458  Biso   1.000  O  -0.4222209511976119
  C67      1.0000 0.90124  0.85552  0.03303  Biso   1.000  C  0.7026345768003519
  C68      1.0000 0.91458  0.84247  0.05351  Biso   1.000  C  -0.0118841025737058
  C69      1.0000 0.90626  0.81910  0.06216  Biso   1.000  C  -0.1038683047155851
  H23      1.0000 0.89045  0.81019  0.05319  Biso   1.000  H  0.1353432987476172
  O47      1.0000 0.09079  0.12417  0.02394  Biso   1.000  O  -0.4221729374170397
  O48      1.0000 0.11996  0.15329  0.02386  Biso   1.000  O  -0.4222209511976119
  C70      1.0000 0.09960  0.14452  0.03240  Biso   1.000  C  0.7004201692634957
  C71      1.0000 0.08627  0.15775  0.05275  Biso   1.000  C  -0.0119772664224163
  C72      1.0000 0.09482  0.18101  0.06144  Biso   1.000  C  -0.1034383429738552
  H24      1.0000 0.11087  0.18964  0.05264  Biso   1.000  H  0.1254773405370029
  Cu1      1.0000 0.10480  0.00007  0.10409  Biso   1.000  Cu  1.0406494230648207
  Cu2      1.0000 0.13978  0.00012  0.13907  Biso   1.000  Cu  1.0413393352340830
  Cu3      1.0000 0.89561  0.00032  0.10472  Biso   1.000  Cu  1.0406494230648207
  Cu4      1.0000 0.86077  0.00039  0.13985  Biso   1.000  Cu  1.0406494230648207
  Cu5      1.0000 0.00010  0.10484  0.10356  Biso   1.000  Cu  1.0406494230648207
  Cu6      1.0000 0.00023  0.13992  0.13843  Biso   1.000  Cu  1.0406494230648207
  Cu7      1.0000 0.00010  0.89611  0.10489  Biso   1.000  Cu  1.0406494230648207
  Cu8      1.0000 0.00010  0.86113  0.13987  Biso   1.000  Cu  1.0413393352340830
  C73      1.0000 0.06548  0.06555  0.14564  Biso   1.000  C  -0.1034383429738552
  H25      1.0000 0.05915  0.05912  0.12752  Biso   1.000  H  0.1351617084746938
  C74      1.0000 0.08260  0.08296  0.19212  Biso   1.000  C  0.0229478679472027
  C75      1.0000 0.93496  0.93525  0.14701  Biso   1.000  C  -0.1048485581128599
  H26      1.0000 0.94138  0.94162  0.12890  Biso   1.000  H  0.1351617084746938
  C76      1.0000 0.91755  0.91799  0.19344  Biso   1.000  C  0.0233745482449430
  C77      1.0000 0.06551  0.14663  0.06434  Biso   1.000  C  -0.1048485581128599
  H27      1.0000 0.05910  0.12849  0.05804  Biso   1.000  H  0.1353432987476172
  C78      1.0000 0.08286  0.19313  0.08145  Biso   1.000  C  0.0232394493051358
  C79      1.0000 0.93495  0.85398  0.06542  Biso   1.000  C  -0.1048485581128599
  H28      1.0000 0.94130  0.87211  0.05902  Biso   1.000  H  0.1353545344044522
  C80      1.0000 0.91774  0.80751  0.08277  Biso   1.000  C  0.0232394493051358
  C81      1.0000 0.14718  0.06498  0.06480  Biso   1.000  C  -0.1048485581128599
  H29      1.0000 0.12907  0.05856  0.05842  Biso   1.000  H  0.1353432987476172
  C82      1.0000 0.19358  0.08240  0.08210  Biso   1.000  C  0.0232572624480647
  C83      1.0000 0.85360  0.93521  0.06556  Biso   1.000  C  -0.1048485581128599
  H30      1.0000 0.87171  0.94163  0.05918  Biso   1.000  H  0.1353432987476172
  C84      1.0000 0.80718  0.91776  0.08280  Biso   1.000  C  0.0232394493051358
  C85      1.0000 0.93517  0.06560  0.14626  Biso   1.000  C  -0.1048485581128599
  H31      1.0000 0.94141  0.05917  0.12811  Biso   1.000  H  0.1351617084746938
  C86      1.0000 0.91823  0.08304  0.19280  Biso   1.000  C  0.0232394493051358
  C87      1.0000 0.06547  0.93519  0.14668  Biso   1.000  C  -0.1048485581128599
  H32      1.0000 0.05905  0.94153  0.12855  Biso   1.000  H  0.1353545344044522
  C88      1.0000 0.08287  0.91801  0.19313  Biso   1.000  C  0.0232394493051358
  C89      1.0000 0.14645  0.93471  0.06485  Biso   1.000  C  -0.1048485581128599
  H33      1.0000 0.12834  0.94114  0.05852  Biso   1.000  H  0.1224915584291129
  C90      1.0000 0.19290  0.91727  0.08201  Biso   1.000  C  0.0232540050304117
  C91      1.0000 0.85298  0.06518  0.06544  Biso   1.000  C  -0.1048485581128599
  H34      1.0000 0.87111  0.05888  0.05901  Biso   1.000  H  0.1351617084746938
  C92      1.0000 0.80650  0.08227  0.08288  Biso   1.000  C  0.0232572624480647
  C93      1.0000 0.93440  0.14650  0.06473  Biso   1.000  C  -0.1048485581128599
  H35      1.0000 0.94080  0.12838  0.05837  Biso   1.000  H  0.1351617084746938
  C94      1.0000 0.91707  0.19297  0.08196  Biso   1.000  C  0.0232540050304117
  C95      1.0000 0.06498  0.85367  0.06533  Biso   1.000  C  -0.1048485581128599
  H36      1.0000 0.05863  0.87178  0.05892  Biso   1.000  H  0.1224915584291129
  C96      1.0000 0.08222  0.80722  0.08272  Biso   1.000  C  0.0232394493051358
  O49      1.0000 0.08940  0.97563  0.87466  Biso   1.000  O  -0.4221729374170397
  O50      1.0000 0.11837  0.97563  0.84534  Biso   1.000  O  -0.4221729374170397
  C97      1.0000 0.09808  0.96712  0.85425  Biso   1.000  C  0.7004201692634957
  C98      1.0000 0.08479  0.94662  0.84121  Biso   1.000  C  -0.0119772664224163
  C99      1.0000 0.09310  0.93796  0.81785  Biso   1.000  C  -0.1038683047155851
  H37      1.0000 0.10886  0.94697  0.80890  Biso   1.000  H  0.1308941163513784
  O51      1.0000 0.91013  0.02447  0.87536  Biso   1.000  O  -0.4221729374170397
  O52      1.0000 0.88111  0.02449  0.84609  Biso   1.000  O  -0.4222209511976119
  C100     1.0000 0.90141  0.03303  0.85501  Biso   1.000  C  0.7026345768003519
  C101     1.0000 0.91467  0.05361  0.84205  Biso   1.000  C  -0.0122633845473154
  C102     1.0000 0.90642  0.06226  0.81866  Biso   1.000  C  -0.1038683047155851
  H38      1.0000 0.89073  0.05320  0.80964  Biso   1.000  H  0.1308941163513784
  O53      1.0000 0.97534  0.12517  0.91045  Biso   1.000  O  -0.4221729374170397
  O54      1.0000 0.97528  0.15447  0.88146  Biso   1.000  O  -0.4221729374170397
  C103     1.0000 0.96676  0.14552  0.90175  Biso   1.000  C  0.7159076442791230
  C104     1.0000 0.94617  0.15846  0.91501  Biso   1.000  C  -0.0119772664224163
  C105     1.0000 0.93751  0.18183  0.90675  Biso   1.000  C  -0.1038683047155851
  H39      1.0000 0.94658  0.19085  0.89105  Biso   1.000  H  0.1353545344044522
  O55      1.0000 0.02414  0.87532  0.90951  Biso   1.000  O  -0.4221729374170397
  O56      1.0000 0.02405  0.84602  0.88053  Biso   1.000  O  -0.4221729374170397
  C106     1.0000 0.03265  0.85495  0.90079  Biso   1.000  C  0.7078182762814196
  C107     1.0000 0.05314  0.84188  0.91405  Biso   1.000  C  -0.0122636898865909
  C108     1.0000 0.06190  0.81867  0.90552  Biso   1.000  C  -0.1048485581128599
  H40      1.0000 0.05303  0.80993  0.88956  Biso   1.000  H  0.1353432987476172
  O57      1.0000 0.12385  0.90968  0.97537  Biso   1.000  O  -0.4221729374170397
  O58      1.0000 0.15310  0.88065  0.97528  Biso   1.000  O  -0.4222209511976119
  C109     1.0000 0.14418  0.90096  0.96676  Biso   1.000  C  0.7007226772402396
  C110     1.0000 0.15715  0.91427  0.94619  Biso   1.000  C  -0.0134432119924920
  C111     1.0000 0.18053  0.90600  0.93752  Biso   1.000  C  -0.1038683047155851
  H41      1.0000 0.18949  0.89023  0.94650  Biso   1.000  H  0.1308941163513784
  O59      1.0000 0.87479  0.08987  0.97562  Biso   1.000  O  -0.4221729374170397
  O60      1.0000 0.84547  0.11884  0.97559  Biso   1.000  O  -0.4222209511976119
  C112     1.0000 0.85442  0.09856  0.96707  Biso   1.000  C  0.7078182762814196
  C113     1.0000 0.84147  0.08526  0.94653  Biso   1.000  C  -0.0121502360574332
  C114     1.0000 0.81810  0.09350  0.93784  Biso   1.000  C  -0.1034904595486104
  H42      1.0000 0.80910  0.10923  0.94685  Biso   1.000  H  0.1308941163513784
  O61      1.0000 0.02409  0.09101  0.87611  Biso   1.000  O  -0.4221729374170397
  O62      1.0000 0.02407  0.12016  0.84698  Biso   1.000  O  -0.4222209511976119
  C115     1.0000 0.03259  0.09980  0.85577  Biso   1.000  C  0.7181012984560450
  C116     1.0000 0.05294  0.08646  0.84252  Biso   1.000  C  -0.0121502360574332
  C117     1.0000 0.06162  0.09502  0.81928  Biso   1.000  C  -0.1034904595486104
  H43      1.0000 0.05284  0.11110  0.81067  Biso   1.000  H  0.1353432987476172
  O63      1.0000 0.97540  0.90947  0.87524  Biso   1.000  O  -0.4221729374170397
  O64      1.0000 0.97525  0.88033  0.84609  Biso   1.000  O  -0.4221729374170397
  C118     1.0000 0.96685  0.90072  0.85489  Biso   1.000  C  0.6988662603979264
  C119     1.0000 0.94650  0.91414  0.84175  Biso   1.000  C  -0.0118976856513891
  C120     1.0000 0.93782  0.90583  0.81839  Biso   1.000  C  -0.1038683047155851
  H44      1.0000 0.94664  0.88990  0.80955  Biso   1.000  H  0.1351617084746938
  O65      1.0000 0.12388  0.02419  0.90899  Biso   1.000  O  -0.4221729374170397
  O66      1.0000 0.15298  0.02416  0.87980  Biso   1.000  O  -0.4221729374170397
  C121     1.0000 0.14424  0.03267  0.90017  Biso   1.000  C  0.7181012984560450
  C122     1.0000 0.15753  0.05300  0.91348  Biso   1.000  C  -0.0119772664224163
  C123     1.0000 0.18081  0.06161  0.90491  Biso   1.000  C  -0.1041901522862805
  H45      1.0000 0.18943  0.05275  0.88889  Biso   1.000  H  0.1224915584291129
  O67      1.0000 0.87592  0.97576  0.90966  Biso   1.000  O  -0.4221729374170397
  O68      1.0000 0.84674  0.97569  0.88055  Biso   1.000  O  -0.4222209511976119
  C124     1.0000 0.85559  0.96720  0.90090  Biso   1.000  C  0.7181012984560450
  C125     1.0000 0.84245  0.94680  0.91426  Biso   1.000  C  -0.0119772664224163
  C126     1.0000 0.81921  0.93807  0.90573  Biso   1.000  C  -0.1048485581128599
  H46      1.0000 0.81053  0.94690  0.88972  Biso   1.000  H  0.1308941163513784
  O69      1.0000 0.09086  0.12424  0.97523  Biso   1.000  O  -0.4221729374170397
  O70      1.0000 0.12006  0.15332  0.97510  Biso   1.000  O  -0.4221729374170397
  C127     1.0000 0.09966  0.14457  0.96668  Biso   1.000  C  0.7131480130737611
  C128     1.0000 0.08627  0.15784  0.94641  Biso   1.000  C  -0.0121580415835852
  C129     1.0000 0.09483  0.18108  0.93771  Biso   1.000  C  -0.1048485581128599
  H47      1.0000 0.11096  0.18965  0.94642  Biso   1.000  H  0.1254773405370029
  O71      1.0000 0.90966  0.87588  0.97567  Biso   1.000  O  -0.4221729374170397
  O72      1.0000 0.88052  0.84674  0.97576  Biso   1.000  O  -0.4221729374170397
  C130     1.0000 0.90081  0.85556  0.96714  Biso   1.000  C  0.6988662603979264
  C131     1.0000 0.91396  0.84241  0.94663  Biso   1.000  C  -0.0120855947804846
  C132     1.0000 0.90535  0.81916  0.93799  Biso   1.000  C  -0.1034904595486104
  H48      1.0000 0.88941  0.81048  0.94695  Biso   1.000  H  0.1351617084746938
  O73      1.0000 0.90992  0.97566  0.87524  Biso   1.000  O  -0.4221729374170397
  O74      1.0000 0.88087  0.97566  0.84601  Biso   1.000  O  -0.4221729374170397
  C133     1.0000 0.90113  0.96709  0.85491  Biso   1.000  C  0.7126431549636361
  C134     1.0000 0.91429  0.94652  0.84187  Biso   1.000  C  -0.0121580415835852
  C135     1.0000 0.90572  0.93781  0.81864  Biso   1.000  C  -0.1048485581128599
  H49      1.0000 0.88985  0.94680  0.80987  Biso   1.000  H  0.1309278840303973
  O75      1.0000 0.08926  0.02440  0.87515  Biso   1.000  O  -0.4221729374170397
  O76      1.0000 0.11821  0.02444  0.84582  Biso   1.000  O  -0.4222209511976119
  C136     1.0000 0.09796  0.03300  0.85481  Biso   1.000  C  0.7159076442791230
  C137     1.0000 0.08473  0.05365  0.84193  Biso   1.000  C  -0.0120456857668748
  C138     1.0000 0.09298  0.06232  0.81856  Biso   1.000  C  -0.1034383429738552
  H50      1.0000 0.10867  0.05326  0.80953  Biso   1.000  H  0.1353432987476172
  O77      1.0000 0.97539  0.87537  0.90964  Biso   1.000  O  -0.4221729374170397
  O78      1.0000 0.97523  0.84606  0.88067  Biso   1.000  O  -0.4222209511976119
  C139     1.0000 0.96679  0.85500  0.90099  Biso   1.000  C  0.6988662603979264
  C140     1.0000 0.94635  0.84201  0.91441  Biso   1.000  C  -0.0120456857668748
  C141     1.0000 0.93763  0.81863  0.90619  Biso   1.000  C  -0.1038683047155851
  H51      1.0000 0.94651  0.80968  0.89036  Biso   1.000  H  0.1309278840303973
  O79      1.0000 0.02414  0.12523  0.91034  Biso   1.000  O  -0.4221729374170397
  O80      1.0000 0.02411  0.15452  0.88135  Biso   1.000  O  -0.4221729374170397
  C142     1.0000 0.03269  0.14558  0.90160  Biso   1.000  C  0.7131480130737611
  C143     1.0000 0.05333  0.15850  0.91478  Biso   1.000  C  -0.0121502360574332
  C144     1.0000 0.06200  0.18186  0.90648  Biso   1.000  C  -0.1034383429738552
  H52      1.0000 0.05289  0.19089  0.89083  Biso   1.000  H  0.1254773405370029
  O81      1.0000 0.87554  0.91022  0.97590  Biso   1.000  O  -0.4221729374170397
  O82      1.0000 0.84626  0.88122  0.97596  Biso   1.000  O  -0.4222209511976119
  C145     1.0000 0.85515  0.90153  0.96742  Biso   1.000  C  0.6950576040147314
  C146     1.0000 0.84209  0.91483  0.94691  Biso   1.000  C  -0.0123205700094703
  C147     1.0000 0.81872  0.90652  0.93826  Biso   1.000  C  -0.1038683047155851
  H53      1.0000 0.80978  0.89074  0.94726  Biso   1.000  H  0.1353545344044522
  O83      1.0000 0.12482  0.08971  0.97524  Biso   1.000  O  -0.4221729374170397
  O84      1.0000 0.15416  0.11864  0.97509  Biso   1.000  O  -0.4222209511976119
  C148     1.0000 0.14518  0.09834  0.96663  Biso   1.000  C  0.7078182762814196
  C149     1.0000 0.15811  0.08497  0.94612  Biso   1.000  C  -0.0118976856513891
  C150     1.0000 0.18151  0.09315  0.93744  Biso   1.000  C  -0.1041901522862805
  H54      1.0000 0.19053  0.10888  0.94644  Biso   1.000  H  0.1353432987476172
  O85      1.0000 0.02408  0.90941  0.87522  Biso   1.000  O  -0.4221729374170397
  O86      1.0000 0.02401  0.88026  0.84608  Biso   1.000  O  -0.4221729374170397
  C151     1.0000 0.03256  0.90061  0.85487  Biso   1.000  C  0.7131480130737611
  C152     1.0000 0.05291  0.91392  0.84166  Biso   1.000  C  -0.0122636898865909
  C153     1.0000 0.06164  0.90535  0.81843  Biso   1.000  C  -0.1034904595486104
  H55      1.0000 0.05284  0.88930  0.80979  Biso   1.000  H  0.1351617084746938
  O87      1.0000 0.97535  0.09100  0.87616  Biso   1.000  O  -0.4221729374170397
  O88      1.0000 0.97528  0.12015  0.84702  Biso   1.000  O  -0.4221729374170397
  C154     1.0000 0.96681  0.09978  0.85582  Biso   1.000  C  0.7004201692634957
  C155     1.0000 0.94648  0.08641  0.84260  Biso   1.000  C  -0.0120855947804846
  C156     1.0000 0.93781  0.09493  0.81934  Biso   1.000  C  -0.1048485581128599
  H56      1.0000 0.94662  0.11099  0.81071  Biso   1.000  H  0.1353545344044522
  O89      1.0000 0.87564  0.02450  0.90936  Biso   1.000  O  -0.4221729374170397
  O90      1.0000 0.84649  0.02447  0.88022  Biso   1.000  O  -0.4221729374170397
  C157     1.0000 0.85529  0.03300  0.90056  Biso   1.000  C  0.7078182762814196
  C158     1.0000 0.84204  0.05335  0.91385  Biso   1.000  C  -0.0121580415835852
  C159     1.0000 0.81879  0.06201  0.90527  Biso   1.000  C  -0.1034383429738552
  H57      1.0000 0.81017  0.05317  0.88923  Biso   1.000  H  0.1351617084746938
  O91      1.0000 0.12337  0.97540  0.90915  Biso   1.000  O  -0.4221729374170397
  O92      1.0000 0.15248  0.97533  0.87998  Biso   1.000  O  -0.4222209511976119
  C160     1.0000 0.14365  0.96679  0.90032  Biso   1.000  C  0.7026345768003519
  C161     1.0000 0.15676  0.94630  0.91358  Biso   1.000  C  -0.0120456857668748
  C162     1.0000 0.18000  0.93759  0.90503  Biso   1.000  C  -0.1048485581128599
  H58      1.0000 0.18869  0.94647  0.88905  Biso   1.000  H  0.1351617084746938
  O93      1.0000 0.08984  0.87519  0.97549  Biso   1.000  O  -0.4221729374170397
  O94      1.0000 0.11893  0.84600  0.97543  Biso   1.000  O  -0.4221729374170397
  C163     1.0000 0.09858  0.85483  0.96696  Biso   1.000  C  0.7004201692634957
  C164     1.0000 0.08525  0.84170  0.94654  Biso   1.000  C  -0.0118976856513891
  C165     1.0000 0.09361  0.81835  0.93789  Biso   1.000  C  -0.1038683047155851
  H59      1.0000 0.10947  0.80949  0.94682  Biso   1.000  H  0.1353432987476172
  O95      1.0000 0.90881  0.12429  0.97562  Biso   1.000  O  -0.4221729374170397
  O96      1.0000 0.87966  0.15342  0.97563  Biso   1.000  O  -0.4221729374170397
  C166     1.0000 0.90002  0.14464  0.96712  Biso   1.000  C  0.7004201692634957
  C167     1.0000 0.91337  0.15789  0.94679  Biso   1.000  C  -0.0120855947804846
  C168     1.0000 0.90482  0.18114  0.93811  Biso   1.000  C  -0.1034904595486104
  H60      1.0000 0.88874  0.18975  0.94689  Biso   1.000  H  0.1353432987476172
  Cu9      1.0000 0.10357  0.99990  0.89490  Biso   1.000  Cu  1.0406494230648207
  Cu10     1.0000 0.13843  0.99989  0.85980  Biso   1.000  Cu  1.0406494230648207
  Cu11     1.0000 0.89583  0.00011  0.89531  Biso   1.000  Cu  1.0406494230648207
  Cu12     1.0000 0.86089  0.00008  0.86028  Biso   1.000  Cu  1.0406494230648207
  Cu13     1.0000 0.10496  0.10411  0.99961  Biso   1.000  Cu  1.0406494230648207
  Cu14     1.0000 0.14008  0.13897  0.99947  Biso   1.000  Cu  1.0406494230648207
  Cu15     1.0000 0.10399  0.89537  0.99982  Biso   1.000  Cu  1.0406494230648207
  Cu16     1.0000 0.13899  0.86042  0.99976  Biso   1.000  Cu  1.0413393352340830
  Cu17     1.0000 0.89471  0.10415  0.99998  Biso   1.000  Cu  1.0406494230648207
  Cu18     1.0000 0.85963  0.13904  0.00001  Biso   1.000  Cu  1.0406494230648207
  Cu19     1.0000 0.89565  0.89593  0.00017  Biso   1.000  Cu  1.0406494230648207
  Cu20     1.0000 0.86061  0.86101  0.00028  Biso   1.000  Cu  1.0406494230648207
  Cu21     1.0000 0.99973  0.10520  0.89619  Biso   1.000  Cu  1.0406494230648207
  Cu22     1.0000 0.99967  0.14027  0.86129  Biso   1.000  Cu  1.0406494230648207
  Cu23     1.0000 0.99974  0.89530  0.89531  Biso   1.000  Cu  1.0406494230648207
  Cu24     1.0000 0.99961  0.86021  0.86043  Biso   1.000  Cu  1.0406494230648207
  C169     1.0000 0.06449  0.93467  0.85279  Biso   1.000  C  -0.1048485581128599
  H61      1.0000 0.05816  0.94108  0.87091  Biso   1.000  H  0.1254773405370029
  C170     1.0000 0.08169  0.91727  0.80634  Biso   1.000  C  0.0232540050304117
  C171     1.0000 0.93490  0.06563  0.85370  Biso   1.000  C  -0.1048485581128599
  H62      1.0000 0.94119  0.05924  0.87185  Biso   1.000  H  0.1353432987476172
  C172     1.0000 0.91783  0.08297  0.80718  Biso   1.000  C  0.0232540050304117
  C173     1.0000 0.93416  0.14680  0.93523  Biso   1.000  C  -0.1048485581128599
  H63      1.0000 0.94058  0.12866  0.94153  Biso   1.000  H  0.1353545344044522
  C174     1.0000 0.91679  0.19330  0.91813  Biso   1.000  C  0.0232540050304117
  C175     1.0000 0.06482  0.85315  0.93468  Biso   1.000  C  -0.1048485581128599
  H64      1.0000 0.05844  0.87127  0.94107  Biso   1.000  H  0.1353432987476172
  C176     1.0000 0.08210  0.80672  0.91732  Biso   1.000  C  0.0232394493051358
  C177     1.0000 0.14558  0.93461  0.93427  Biso   1.000  C  -0.1034383429738552
  H65      1.0000 0.12745  0.94094  0.94069  Biso   1.000  H  0.1353545344044522
  C178     1.0000 0.19207  0.91750  0.91690  Biso   1.000  C  0.0232394493051358
  C179     1.0000 0.85312  0.06499  0.93459  Biso   1.000  C  -0.1048485581128599
  H66      1.0000 0.87126  0.05870  0.94102  Biso   1.000  H  0.1353545344044522
  C180     1.0000 0.80663  0.08204  0.91717  Biso   1.000  C  0.0232540050304117
  C181     1.0000 0.06450  0.06566  0.85360  Biso   1.000  C  -0.1048485581128599
  H67      1.0000 0.05820  0.05923  0.87173  Biso   1.000  H  0.1351617084746938
  C182     1.0000 0.08160  0.08305  0.80711  Biso   1.000  C  0.0232394493051358
  C183     1.0000 0.93480  0.93468  0.85317  Biso   1.000  C  -0.1048485581128599
  H68      1.0000 0.94121  0.94103  0.87129  Biso   1.000  H  0.1351617084746938
  C184     1.0000 0.91737  0.91750  0.80672  Biso   1.000  C  0.0232540050304117
  C185     1.0000 0.14644  0.06469  0.93420  Biso   1.000  C  -0.1048485581128599
  H69      1.0000 0.12828  0.05845  0.94062  Biso   1.000  H  0.1353545344044522
  C186     1.0000 0.19299  0.08164  0.91680  Biso   1.000  C  0.0232394493051358
  C187     1.0000 0.85363  0.93517  0.93497  Biso   1.000  C  -0.1048485581128599
  H70      1.0000 0.87177  0.94151  0.94135  Biso   1.000  H  0.1353545344044522
  C188     1.0000 0.80716  0.91798  0.91762  Biso   1.000  C  0.0232394493051358
  C189     1.0000 0.06540  0.14681  0.93494  Biso   1.000  C  -0.1048485581128599
  H71      1.0000 0.05898  0.12868  0.94127  Biso   1.000  H  0.1353545344044522
  C190     1.0000 0.08280  0.19327  0.91778  Biso   1.000  C  0.0232394493051358
  C191     1.0000 0.93457  0.85358  0.93483  Biso   1.000  C  -0.1048485581128599
  H72      1.0000 0.94102  0.87171  0.94111  Biso   1.000  H  0.1351617084746938
  C192     1.0000 0.91708  0.80709  0.91782  Biso   1.000  C  0.0232540050304117
  O97      1.0000 0.97553  0.40920  0.37616  Biso   1.000  O  -0.4221729374170397
  O98      1.0000 0.97541  0.38001  0.34707  Biso   1.000  O  -0.4221729374170397
  C193     1.0000 0.96696  0.40039  0.35584  Biso   1.000  C  0.7004201692634957
  C194     1.0000 0.94658  0.41371  0.34264  Biso   1.000  C  -0.0120855947804846
  C195     1.0000 0.93791  0.40516  0.31939  Biso   1.000  C  -0.1048485581128599
  H73      1.0000 0.94675  0.38914  0.31075  Biso   1.000  H  0.1224915584291129
  O99      1.0000 0.02463  0.58985  0.37488  Biso   1.000  O  -0.4221729374170397
  O100     1.0000 0.02471  0.61891  0.34566  Biso   1.000  O  -0.4221729374170397
  C196     1.0000 0.03317  0.59857  0.35452  Biso   1.000  C  0.7078182762814196
  C197     1.0000 0.05360  0.58521  0.34145  Biso   1.000  C  -0.0121502360574332
  C198     1.0000 0.06227  0.59352  0.31809  Biso   1.000  C  -0.1038683047155851
  H74      1.0000 0.05337  0.60939  0.30921  Biso   1.000  H  0.1353545344044522
  O101     1.0000 0.87556  0.47568  0.40940  Biso   1.000  O  -0.4221729374170397
  O102     1.0000 0.84641  0.47572  0.38027  Biso   1.000  O  -0.4221729374170397
  C199     1.0000 0.85519  0.46722  0.40062  Biso   1.000  C  0.7131480130737611
  C200     1.0000 0.84190  0.44691  0.41395  Biso   1.000  C  -0.0120855947804846
  C201     1.0000 0.81865  0.43826  0.40537  Biso   1.000  C  -0.1048485581128599
  H75      1.0000 0.81005  0.44706  0.38931  Biso   1.000  H  0.1240027946094012
  O103     1.0000 0.12454  0.52390  0.40945  Biso   1.000  O  -0.4221729374170397
  O104     1.0000 0.15373  0.52383  0.38035  Biso   1.000  O  -0.4222209511976119
  C202     1.0000 0.14490  0.53238  0.40069  Biso   1.000  C  0.7026345768003519
  C203     1.0000 0.15798  0.55287  0.41398  Biso   1.000  C  -0.0118841025737058
  C204     1.0000 0.18132  0.56157  0.40564  Biso   1.000  C  -0.1038683047155851
  H76      1.0000 0.19023  0.55264  0.38980  Biso   1.000  H  0.1353545344044522
  O105     1.0000 0.90880  0.37611  0.47572  Biso   1.000  O  -0.4221729374170397
  O106     1.0000 0.87958  0.34705  0.47570  Biso   1.000  O  -0.4222209511976119
  C205     1.0000 0.89997  0.35579  0.46720  Biso   1.000  C  0.7159076442791230
  C206     1.0000 0.91332  0.34254  0.44687  Biso   1.000  C  -0.0119772664224163
  C207     1.0000 0.90477  0.31928  0.43819  Biso   1.000  C  -0.1041901522862805
  H77      1.0000 0.88867  0.31068  0.44695  Biso   1.000  H  0.1353432987476172
  O107     1.0000 0.09023  0.62430  0.47543  Biso   1.000  O  -0.4221729374170397
  O108     1.0000 0.11934  0.65348  0.47535  Biso   1.000  O  -0.4222209511976119
  C208     1.0000 0.09897  0.64466  0.46688  Biso   1.000  C  0.6975873183683806
  C209     1.0000 0.08565  0.65775  0.44641  Biso   1.000  C  -0.0118841025737058
  C210     1.0000 0.09397  0.68112  0.43777  Biso   1.000  C  -0.1038683047155851
  H78      1.0000 0.10976  0.69004  0.44675  Biso   1.000  H  0.1309278840303973
  O109     1.0000 0.90999  0.52429  0.37512  Biso   1.000  O  -0.4221729374170397
  O110     1.0000 0.88093  0.52431  0.34590  Biso   1.000  O  -0.4221729374170397
  C211     1.0000 0.90124  0.53282  0.35475  Biso   1.000  C  0.7184492563054196
  C212     1.0000 0.91454  0.55322  0.34161  Biso   1.000  C  -0.0125674430107353
  C213     1.0000 0.90598  0.56196  0.31838  Biso   1.000  C  -0.1034383429738552
  H79      1.0000 0.88999  0.55309  0.30968  Biso   1.000  H  0.1353545344044522
  O111     1.0000 0.09004  0.47524  0.37540  Biso   1.000  O  -0.4221729374170397
  O112     1.0000 0.11901  0.47507  0.34610  Biso   1.000  O  -0.4222209511976119
  C214     1.0000 0.09869  0.46662  0.35505  Biso   1.000  C  0.7181012984560450
  C215     1.0000 0.08530  0.44610  0.34212  Biso   1.000  C  -0.0122857281426626
  C216     1.0000 0.09349  0.43741  0.31873  Biso   1.000  C  -0.1041901522862805
  H80      1.0000 0.10924  0.44637  0.30972  Biso   1.000  H  0.1254773405370029
  O113     1.0000 0.02423  0.37489  0.41041  Biso   1.000  O  -0.4221729374170397
  O114     1.0000 0.02414  0.34557  0.38145  Biso   1.000  O  -0.4221729374170397
  C217     1.0000 0.03273  0.35450  0.40171  Biso   1.000  C  0.6988662603979264
  C218     1.0000 0.05331  0.34151  0.41491  Biso   1.000  C  -0.0121502360574332
  C219     1.0000 0.06196  0.31816  0.40657  Biso   1.000  C  -0.1038683047155851
  H81      1.0000 0.05288  0.30918  0.39087  Biso   1.000  H  0.1309278840303973
  O115     1.0000 0.97584  0.62400  0.40911  Biso   1.000  O  -0.4221729374170397
  O116     1.0000 0.97585  0.65321  0.38004  Biso   1.000  O  -0.4221729374170397
  C220     1.0000 0.96729  0.64433  0.40034  Biso   1.000  C  0.7181012984560450
  C221     1.0000 0.94680  0.65743  0.41362  Biso   1.000  C  -0.0118976856513891
  C222     1.0000 0.93802  0.68064  0.40506  Biso   1.000  C  -0.1034383429738552
  H82      1.0000 0.94686  0.68934  0.38906  Biso   1.000  H  0.1353432987476172
  O117     1.0000 0.87596  0.59025  0.47567  Biso   1.000  O  -0.4221729374170397
  O118     1.0000 0.84674  0.61931  0.47562  Biso   1.000  O  -0.4222209511976119
  C223     1.0000 0.85558  0.59896  0.46715  Biso   1.000  C  0.6950576040147314
  C224     1.0000 0.84248  0.58561  0.44670  Biso   1.000  C  -0.0122848725318986
  C225     1.0000 0.81911  0.59396  0.43806  Biso   1.000  C  -0.1038683047155851
  H83      1.0000 0.81023  0.60978  0.44702  Biso   1.000  H  0.1224915584291129
  O119     1.0000 0.12505  0.40973  0.47559  Biso   1.000  O  -0.4221729374170397
  O120     1.0000 0.15432  0.38071  0.47560  Biso   1.000  O  -0.4221729374170397
  C226     1.0000 0.14543  0.40102  0.46708  Biso   1.000  C  0.6988662603979264
  C227     1.0000 0.15846  0.41431  0.44658  Biso   1.000  C  -0.0119772664224163
  C228     1.0000 0.18184  0.40603  0.43792  Biso   1.000  C  -0.1038683047155851
  H84      1.0000 0.19081  0.39027  0.44692  Biso   1.000  H  0.1353432987476172
  O121     1.0000 0.97595  0.58988  0.37479  Biso   1.000  O  -0.4221729374170397
  O122     1.0000 0.97597  0.61894  0.34557  Biso   1.000  O  -0.4221729374170397
  C229     1.0000 0.96746  0.59861  0.35441  Biso   1.000  C  0.7126431549636361
  C230     1.0000 0.94703  0.58530  0.34132  Biso   1.000  C  -0.0120855947804846
  C231     1.0000 0.93837  0.59363  0.31796  Biso   1.000  C  -0.1041901522862805
  H85      1.0000 0.94730  0.60947  0.30908  Biso   1.000  H  0.1254773405370029
  O123     1.0000 0.02431  0.40913  0.37620  Biso   1.000  O  -0.4221729374170397
  O124     1.0000 0.02423  0.37995  0.34710  Biso   1.000  O  -0.4222209511976119
  C232     1.0000 0.03281  0.40029  0.35587  Biso   1.000  C  0.7026345768003519
  C233     1.0000 0.05324  0.41352  0.34264  Biso   1.000  C  -0.0118976856513891
  C234     1.0000 0.06187  0.40495  0.31938  Biso   1.000  C  -0.1034383429738552
  H86      1.0000 0.05296  0.38895  0.31074  Biso   1.000  H  0.1353545344044522
  O125     1.0000 0.12451  0.47517  0.40939  Biso   1.000  O  -0.4221729374170397
  O126     1.0000 0.15364  0.47504  0.38023  Biso   1.000  O  -0.4221729374170397
  C235     1.0000 0.14483  0.46659  0.40059  Biso   1.000  C  0.7131480130737611
  C236     1.0000 0.15801  0.44622  0.41391  Biso   1.000  C  -0.0125674430107353
  C237     1.0000 0.18125  0.43754  0.40537  Biso   1.000  C  -0.1048485581128599
  H87      1.0000 0.18991  0.44638  0.38935  Biso   1.000  H  0.1353432987476172
  O127     1.0000 0.87606  0.52444  0.40961  Biso   1.000  O  -0.4221729374170397
  O128     1.0000 0.84687  0.52452  0.38052  Biso   1.000  O  -0.4222209511976119
  C238     1.0000 0.85575  0.53305  0.40084  Biso   1.000  C  0.7181012984560450
  C239     1.0000 0.84270  0.55354  0.41414  Biso   1.000  C  -0.0119772664224163
  C240     1.0000 0.81947  0.56231  0.40563  Biso   1.000  C  -0.1034904595486104
  H88      1.0000 0.81073  0.55345  0.38966  Biso   1.000  H  0.1353545344044522
  O129     1.0000 0.91030  0.62441  0.47539  Biso   1.000  O  -0.4221729374170397
  O130     1.0000 0.88124  0.65363  0.47532  Biso   1.000  O  -0.4222209511976119
  C241     1.0000 0.90154  0.64473  0.46679  Biso   1.000  C  0.7181012984560450
  C242     1.0000 0.91479  0.65773  0.44622  Biso   1.000  C  -0.0122857281426626
  C243     1.0000 0.90643  0.68107  0.43754  Biso   1.000  C  -0.1038683047155851
  H89      1.0000 0.89063  0.68998  0.44653  Biso   1.000  H  0.1353432987476172
  O131     1.0000 0.09075  0.37556  0.47549  Biso   1.000  O  -0.4221729374170397
  O132     1.0000 0.11987  0.34640  0.47547  Biso   1.000  O  -0.4221729374170397
  C244     1.0000 0.09953  0.35522  0.46697  Biso   1.000  C  0.7131480130737611
  C245     1.0000 0.08616  0.34202  0.44663  Biso   1.000  C  -0.0120855947804846
  C246     1.0000 0.09471  0.31879  0.43789  Biso   1.000  C  -0.1034904595486104
  H90      1.0000 0.11080  0.31016  0.44662  Biso   1.000  H  0.1309278840303973
  O133     1.0000 0.09040  0.52402  0.37516  Biso   1.000  O  -0.4221729374170397
  O134     1.0000 0.11944  0.52390  0.34591  Biso   1.000  O  -0.4221729374170397
  C247     1.0000 0.09918  0.53252  0.35480  Biso   1.000  C  0.7131480130737611
  C248     1.0000 0.08599  0.55302  0.34169  Biso   1.000  C  -0.0121580415835852
  C249     1.0000 0.09456  0.56174  0.31846  Biso   1.000  C  -0.1048485581128599
  H91      1.0000 0.11050  0.55282  0.30974  Biso   1.000  H  0.1351617084746938
  O135     1.0000 0.91010  0.47553  0.37545  Biso   1.000  O  -0.4221729374170397
  O136     1.0000 0.88109  0.47551  0.34618  Biso   1.000  O  -0.4222209511976119
  C250     1.0000 0.90138  0.46696  0.35511  Biso   1.000  C  0.7159076442791230
  C251     1.0000 0.91465  0.44639  0.34215  Biso   1.000  C  -0.0122857281426626
  C252     1.0000 0.90639  0.43771  0.31877  Biso   1.000  C  -0.1038683047155851
  H92      1.0000 0.89065  0.44672  0.30978  Biso   1.000  H  0.1353432987476172
  O137     1.0000 0.02464  0.62399  0.40920  Biso   1.000  O  -0.4221729374170397
  O138     1.0000 0.02471  0.65320  0.38014  Biso   1.000  O  -0.4221729374170397
  C253     1.0000 0.03321  0.64433  0.40047  Biso   1.000  C  0.7159076442791230
  C254     1.0000 0.05364  0.65744  0.41381  Biso   1.000  C  -0.0121502360574332
  C255     1.0000 0.06236  0.68069  0.40530  Biso   1.000  C  -0.1048485581128599
  H93      1.0000 0.05351  0.68939  0.38932  Biso   1.000  H  0.1224915584291129
  O139     1.0000 0.97543  0.37515  0.41056  Biso   1.000  O  -0.4221729374170397
  O140     1.0000 0.97532  0.34582  0.38161  Biso   1.000  O  -0.4222209511976119
  C256     1.0000 0.96681  0.35481  0.40188  Biso   1.000  C  0.7004201692634957
  C257     1.0000 0.94618  0.34192  0.41513  Biso   1.000  C  -0.0118976856513891
  C258     1.0000 0.93752  0.31854  0.40689  Biso   1.000  C  -0.1034383429738552
  H94      1.0000 0.94661  0.30951  0.39122  Biso   1.000  H  0.1351617084746938
  O141     1.0000 0.12429  0.58990  0.47518  Biso   1.000  O  -0.4221729374170397
  O142     1.0000 0.15354  0.61893  0.47511  Biso   1.000  O  -0.4221729374170397
  C259     1.0000 0.14462  0.59865  0.46658  Biso   1.000  C  0.6988662603979264
  C260     1.0000 0.15768  0.58538  0.44608  Biso   1.000  C  -0.0121580415835852
  C261     1.0000 0.18089  0.59394  0.43734  Biso   1.000  C  -0.1048485581128599
  H95      1.0000 0.18960  0.60991  0.44623  Biso   1.000  H  0.1353545344044522
  O143     1.0000 0.87465  0.41040  0.47575  Biso   1.000  O  -0.4221729374170397
  O144     1.0000 0.84527  0.38150  0.47575  Biso   1.000  O  -0.4221729374170397
  C262     1.0000 0.85425  0.40176  0.46722  Biso   1.000  C  0.7131480130737611
  C263     1.0000 0.84131  0.41506  0.44668  Biso   1.000  C  -0.0120855947804846
  C264     1.0000 0.81794  0.40682  0.43799  Biso   1.000  C  -0.1041901522862805
  H96      1.0000 0.80892  0.39110  0.44701  Biso   1.000  H  0.1353432987476172
  Cu25     1.0000 0.99989  0.39500  0.39625  Biso   1.000  Cu  1.0406494230648207
  Cu26     1.0000 0.99976  0.35990  0.36139  Biso   1.000  Cu  1.0406494230648207
  Cu27     1.0000 0.00026  0.60402  0.39491  Biso   1.000  Cu  1.0406494230648207
  Cu28     1.0000 0.00032  0.63902  0.35995  Biso   1.000  Cu  1.0406494230648207
  Cu29     1.0000 0.89584  0.49997  0.39531  Biso   1.000  Cu  1.0406494230648207
  Cu30     1.0000 0.86090  0.50002  0.36029  Biso   1.000  Cu  1.0406494230648207
  Cu31     1.0000 0.10446  0.49959  0.39526  Biso   1.000  Cu  1.0406494230648207
  Cu32     1.0000 0.13937  0.49944  0.36020  Biso   1.000  Cu  1.0406494230648207
  C265     1.0000 0.93494  0.43444  0.35377  Biso   1.000  C  -0.1048485581128599
  H97      1.0000 0.94125  0.44086  0.37190  Biso   1.000  H  0.1351617084746938
  C266     1.0000 0.91786  0.41705  0.30727  Biso   1.000  C  0.0232394493051358
  C267     1.0000 0.06539  0.56477  0.35293  Biso   1.000  C  -0.1048485581128599
  H98      1.0000 0.05897  0.55842  0.37105  Biso   1.000  H  0.1353432987476172
  C268     1.0000 0.08281  0.58195  0.30648  Biso   1.000  C  0.0232572624480647
  C269     1.0000 0.85297  0.43531  0.43472  Biso   1.000  C  -0.1048485581128599
  H99      1.0000 0.87111  0.44160  0.44115  Biso   1.000  H  0.1353545344044522
  C270     1.0000 0.80648  0.41825  0.41729  Biso   1.000  C  0.0232394493051358
  C271     1.0000 0.14647  0.56473  0.43439  Biso   1.000  C  -0.1048485581128599
  H100     1.0000 0.12836  0.55831  0.44077  Biso   1.000  H  0.1353432987476172
  C272     1.0000 0.19290  0.58216  0.41716  Biso   1.000  C  0.0232540050304117
  C273     1.0000 0.93414  0.35360  0.43533  Biso   1.000  C  -0.1048485581128599
  H101     1.0000 0.94056  0.37174  0.44162  Biso   1.000  H  0.1353432987476172
  C274     1.0000 0.91677  0.30710  0.41824  Biso   1.000  C  0.0232572624480647
  C275     1.0000 0.06529  0.64623  0.43449  Biso   1.000  C  -0.1048485581128599
  H102     1.0000 0.05894  0.62809  0.44086  Biso   1.000  H  0.1353545344044522
  C276     1.0000 0.08248  0.69271  0.41717  Biso   1.000  C  0.0232394493051358
  C277     1.0000 0.93518  0.56489  0.35281  Biso   1.000  C  -0.1048485581128599
  H103     1.0000 0.94159  0.55854  0.37094  Biso   1.000  H  0.1353545344044522
  C278     1.0000 0.91778  0.58213  0.30638  Biso   1.000  C  0.0233745482449430
  C279     1.0000 0.06497  0.43422  0.35376  Biso   1.000  C  -0.1034383429738552
  H104     1.0000 0.05872  0.44065  0.37191  Biso   1.000  H  0.1353432987476172
  C280     1.0000 0.08194  0.41679  0.30723  Biso   1.000  C  0.0232394493051358
  C281     1.0000 0.06535  0.35312  0.43514  Biso   1.000  C  -0.1048485581128599
  H105     1.0000 0.05894  0.37124  0.44149  Biso   1.000  H  0.1351617084746938
  C282     1.0000 0.08271  0.30667  0.41790  Biso   1.000  C  0.0232394493051358
  C283     1.0000 0.93516  0.64622  0.43431  Biso   1.000  C  -0.1048485581128599
  H106     1.0000 0.94155  0.62812  0.44074  Biso   1.000  H  0.1353432987476172
  C284     1.0000 0.91788  0.69265  0.41692  Biso   1.000  C  0.0232394493051358
  C285     1.0000 0.85395  0.56521  0.43480  Biso   1.000  C  -0.1048485581128599
  H107     1.0000 0.87208  0.55884  0.44118  Biso   1.000  H  0.1353545344044522
  C286     1.0000 0.80749  0.58247  0.41747  Biso   1.000  C  0.0228992450093916
  C287     1.0000 0.14687  0.43460  0.43463  Biso   1.000  C  -0.1048485581128599
  H108     1.0000 0.12873  0.44092  0.44103  Biso   1.000  H  0.1353545344044522
  C288     1.0000 0.19336  0.41749  0.41726  Biso   1.000  C  0.0232572624480647
  O145     1.0000 0.02437  0.40911  0.62355  Biso   1.000  O  -0.4221729374170397
  O146     1.0000 0.02439  0.37998  0.65270  Biso   1.000  O  -0.4222209511976119
  C289     1.0000 0.03294  0.40031  0.64386  Biso   1.000  C  0.7026345768003519
  C290     1.0000 0.05339  0.41359  0.65701  Biso   1.000  C  -0.0116768544177920
  C291     1.0000 0.06208  0.40505  0.68026  Biso   1.000  C  -0.1048485581128599
  H109     1.0000 0.05323  0.38904  0.68893  Biso   1.000  H  0.1353432987476172
  O147     1.0000 0.97584  0.59050  0.62457  Biso   1.000  O  -0.4221729374170397
  O148     1.0000 0.97593  0.61963  0.65372  Biso   1.000  O  -0.4221729374170397
  C292     1.0000 0.96734  0.59932  0.64491  Biso   1.000  C  0.6988662603979264
  C293     1.0000 0.94689  0.58608  0.65807  Biso   1.000  C  -0.0120855947804846
  C294     1.0000 0.93816  0.59467  0.68129  Biso   1.000  C  -0.1048485581128599
  H110     1.0000 0.94702  0.61067  0.68996  Biso   1.000  H  0.1308941163513784
  O149     1.0000 0.87617  0.52457  0.59058  Biso   1.000  O  -0.4221729374170397
  O150     1.0000 0.84702  0.52470  0.61971  Biso   1.000  O  -0.4222209511976119
  C295     1.0000 0.85586  0.53317  0.59934  Biso   1.000  C  0.6871253589639147
  C296     1.0000 0.84281  0.55365  0.58599  Biso   1.000  C  -0.0123205700094703
  C297     1.0000 0.81947  0.56234  0.59432  Biso   1.000  C  -0.1038683047155851
  H111     1.0000 0.81059  0.55346  0.61019  Biso   1.000  H  0.1309278840303973
  O151     1.0000 0.12461  0.47550  0.59026  Biso   1.000  O  -0.4221729374170397
  O152     1.0000 0.15375  0.47547  0.61939  Biso   1.000  O  -0.4221729374170397
  C298     1.0000 0.14498  0.46700  0.59902  Biso   1.000  C  0.6988662603979264
  C299     1.0000 0.15816  0.44661  0.58570  Biso   1.000  C  -0.0118976856513891
  C300     1.0000 0.18151  0.43797  0.59410  Biso   1.000  C  -0.1038683047155851
  H112     1.0000 0.19032  0.44687  0.61001  Biso   1.000  H  0.1353545344044522
  O153     1.0000 0.09069  0.37546  0.52420  Biso   1.000  O  -0.4221729374170397
  O154     1.0000 0.11979  0.34627  0.52423  Biso   1.000  O  -0.4221729374170397
  C301     1.0000 0.09943  0.35509  0.53270  Biso   1.000  C  0.6988662603979264
  C302     1.0000 0.08604  0.34188  0.55302  Biso   1.000  C  -0.0120855947804846
  C303     1.0000 0.09457  0.31863  0.56172  Biso   1.000  C  -0.1048485581128599
  H113     1.0000 0.11063  0.30999  0.55294  Biso   1.000  H  0.1308941163513784
  O155     1.0000 0.91036  0.62477  0.52414  Biso   1.000  O  -0.4221729374170397
  O156     1.0000 0.88130  0.65400  0.52412  Biso   1.000  O  -0.4221729374170397
  C304     1.0000 0.90164  0.64517  0.53262  Biso   1.000  C  0.7181012984560450
  C305     1.0000 0.91497  0.65829  0.55305  Biso   1.000  C  -0.0120456857668748
  C306     1.0000 0.90661  0.68164  0.56170  Biso   1.000  C  -0.1038683047155851
  H114     1.0000 0.89078  0.69052  0.55273  Biso   1.000  H  0.1353545344044522
  O157     1.0000 0.91035  0.47571  0.62468  Biso   1.000  O  -0.4221729374170397
  O158     1.0000 0.88140  0.47572  0.65401  Biso   1.000  O  -0.4222209511976119
  C307     1.0000 0.90166  0.46714  0.64504  Biso   1.000  C  0.7181012984560450
  C308     1.0000 0.91492  0.44653  0.65795  Biso   1.000  C  -0.0122857281426626
  C309     1.0000 0.90667  0.43785  0.68133  Biso   1.000  C  -0.1038683047155851
  H115     1.0000 0.89097  0.44690  0.69035  Biso   1.000  H  0.1351617084746938
  O159     1.0000 0.09020  0.52422  0.62442  Biso   1.000  O  -0.4221729374170397
  O160     1.0000 0.11922  0.52416  0.65369  Biso   1.000  O  -0.4221729374170397
  C310     1.0000 0.09895  0.53274  0.64478  Biso   1.000  C  0.6988662603979264
  C311     1.0000 0.08575  0.55327  0.65786  Biso   1.000  C  -0.0120855947804846
  C312     1.0000 0.09432  0.56197  0.68110  Biso   1.000  C  -0.1048485581128599
  H116     1.0000 0.11021  0.55299  0.68985  Biso   1.000  H  0.1351617084746938
  O161     1.0000 0.97542  0.37502  0.58944  Biso   1.000  O  -0.4221729374170397
  O162     1.0000 0.97539  0.34573  0.61843  Biso   1.000  O  -0.4222209511976119
  C313     1.0000 0.96683  0.35468  0.59817  Biso   1.000  C  0.7004201692634957
  C314     1.0000 0.94618  0.34178  0.58497  Biso   1.000  C  -0.0119772664224163
  C315     1.0000 0.93751  0.31841  0.59324  Biso   1.000  C  -0.1034383429738552
  H117     1.0000 0.94661  0.30938  0.60890  Biso   1.000  H  0.1309278840303973
  O163     1.0000 0.02467  0.62451  0.59025  Biso   1.000  O  -0.4221729374170397
  O164     1.0000 0.02481  0.65380  0.61924  Biso   1.000  O  -0.4221729374170397
  C316     1.0000 0.03326  0.64487  0.59892  Biso   1.000  C  0.7004201692634957
  C317     1.0000 0.05372  0.65788  0.58553  Biso   1.000  C  -0.0122633845473154
  C318     1.0000 0.06243  0.68125  0.59377  Biso   1.000  C  -0.1034383429738552
  H118     1.0000 0.05355  0.69018  0.60961  Biso   1.000  H  0.1254773405370029
  O165     1.0000 0.87478  0.41046  0.52451  Biso   1.000  O  -0.4221729374170397
  O166     1.0000 0.84539  0.38156  0.52456  Biso   1.000  O  -0.4222209511976119
  C319     1.0000 0.85440  0.40182  0.53309  Biso   1.000  C  0.7159076442791230
  C320     1.0000 0.84149  0.41514  0.55365  Biso   1.000  C  -0.0119772664224163
  C321     1.0000 0.81812  0.40691  0.56236  Biso   1.000  C  -0.1038683047155851
  H119     1.0000 0.80909  0.39119  0.55335  Biso   1.000  H  0.1353432987476172
  O167     1.0000 0.12462  0.58989  0.52396  Biso   1.000  O  -0.4221729374170397
  O168     1.0000 0.15391  0.61887  0.52393  Biso   1.000  O  -0.4222209511976119
  C322     1.0000 0.14502  0.59856  0.53246  Biso   1.000  C  0.7026345768003519
  C323     1.0000 0.15807  0.58524  0.55295  Biso   1.000  C  -0.0123205700094703
  C324     1.0000 0.18142  0.59355  0.56165  Biso   1.000  C  -0.1038683047155851
  H120     1.0000 0.19036  0.60935  0.55270  Biso   1.000  H  0.1308941163513784
  O169     1.0000 0.02456  0.59030  0.62456  Biso   1.000  O  -0.4221729374170397
  O170     1.0000 0.02472  0.61943  0.65372  Biso   1.000  O  -0.4222209511976119
  C325     1.0000 0.03312  0.59903  0.64491  Biso   1.000  C  0.7181012984560450
  C326     1.0000 0.05349  0.58561  0.65803  Biso   1.000  C  -0.0122633845473154
  C327     1.0000 0.06217  0.59390  0.68140  Biso   1.000  C  -0.1038683047155851
  H121     1.0000 0.05333  0.60981  0.69026  Biso   1.000  H  0.1353432987476172
  O171     1.0000 0.97560  0.40915  0.62376  Biso   1.000  O  -0.4221729374170397
  O172     1.0000 0.97557  0.38001  0.65290  Biso   1.000  O  -0.4221729374170397
  C328     1.0000 0.96708  0.40038  0.64412  Biso   1.000  C  0.6950576040147314
  C329     1.0000 0.94675  0.41375  0.65737  Biso   1.000  C  -0.0119772664224163
  C330     1.0000 0.93808  0.40519  0.68062  Biso   1.000  C  -0.1034904595486104
  H122     1.0000 0.94687  0.38913  0.68924  Biso   1.000  H  0.1254773405370029
  O173     1.0000 0.12422  0.52423  0.59004  Biso   1.000  O  -0.4221729374170397
  O174     1.0000 0.15337  0.52424  0.61917  Biso   1.000  O  -0.4222209511976119
  C331     1.0000 0.14454  0.53278  0.59883  Biso   1.000  C  0.7004201692634957
  C332     1.0000 0.15768  0.55322  0.58555  Biso   1.000  C  -0.0120855947804846
  C333     1.0000 0.18090  0.56194  0.59412  Biso   1.000  C  -0.1048485581128599
  H123     1.0000 0.18956  0.55309  0.61013  Biso   1.000  H  0.1308941163513784
  O175     1.0000 0.87576  0.47582  0.59083  Biso   1.000  O  -0.4221729374170397
  O176     1.0000 0.84666  0.47589  0.62001  Biso   1.000  O  -0.4221729374170397
  C334     1.0000 0.85540  0.46736  0.59965  Biso   1.000  C  0.7004201692634957
  C335     1.0000 0.84211  0.44702  0.58636  Biso   1.000  C  -0.0121502360574332
  C336     1.0000 0.81886  0.43837  0.59496  Biso   1.000  C  -0.1034904595486104
  H124     1.0000 0.81027  0.44720  0.61102  Biso   1.000  H  0.1308941163513784
  O177     1.0000 0.09039  0.62411  0.52422  Biso   1.000  O  -0.4221729374170397
  O178     1.0000 0.11955  0.65324  0.52417  Biso   1.000  O  -0.4221729374170397
  C337     1.0000 0.09926  0.64441  0.53277  Biso   1.000  C  0.7004201692634957
  C338     1.0000 0.08610  0.65753  0.55331  Biso   1.000  C  -0.0120855947804846
  C339     1.0000 0.09471  0.68076  0.56197  Biso   1.000  C  -0.1034904595486104
  H125     1.0000 0.11064  0.68946  0.55301  Biso   1.000  H  0.1351617084746938
  O179     1.0000 0.90877  0.37601  0.52445  Biso   1.000  O  -0.4221729374170397
  O180     1.0000 0.87955  0.34695  0.52449  Biso   1.000  O  -0.4221729374170397
  C340     1.0000 0.89994  0.35569  0.53296  Biso   1.000  C  0.7078182762814196
  C341     1.0000 0.91330  0.34241  0.55326  Biso   1.000  C  -0.0119772664224163
  C342     1.0000 0.90475  0.31916  0.56195  Biso   1.000  C  -0.1041901522862805
  H126     1.0000 0.88864  0.31057  0.55319  Biso   1.000  H  0.1353545344044522
  O181     1.0000 0.08998  0.47540  0.62414  Biso   1.000  O  -0.4221729374170397
  O182     1.0000 0.11897  0.47531  0.65342  Biso   1.000  O  -0.4222209511976119
  C343     1.0000 0.09867  0.46680  0.64448  Biso   1.000  C  0.7181012984560450
  C344     1.0000 0.08537  0.44624  0.65744  Biso   1.000  C  -0.0118841025737058
  C345     1.0000 0.09363  0.43757  0.68082  Biso   1.000  C  -0.1038683047155851
  H127     1.0000 0.10938  0.44657  0.68979  Biso   1.000  H  0.1254773405370029
  O183     1.0000 0.91022  0.52448  0.62502  Biso   1.000  O  -0.4221729374170397
  O184     1.0000 0.88123  0.52456  0.65432  Biso   1.000  O  -0.4221729374170397
  C346     1.0000 0.90154  0.53303  0.64541  Biso   1.000  C  0.7004201692634957
  C347     1.0000 0.91487  0.55351  0.65844  Biso   1.000  C  -0.0116768544177920
  C348     1.0000 0.90656  0.56220  0.68179  Biso   1.000  C  -0.1038683047155851
  H128     1.0000 0.89076  0.55324  0.69072  Biso   1.000  H  0.1308941163513784
  O185     1.0000 0.97592  0.62456  0.59023  Biso   1.000  O  -0.4221729374170397
  O186     1.0000 0.97599  0.65384  0.61924  Biso   1.000  O  -0.4222209511976119
  C349     1.0000 0.96743  0.64494  0.59895  Biso   1.000  C  0.6988662603979264
  C350     1.0000 0.94700  0.65805  0.58563  Biso   1.000  C  -0.0120855947804846
  C351     1.0000 0.93823  0.68127  0.59416  Biso   1.000  C  -0.1048485581128599
  H129     1.0000 0.94706  0.68998  0.61015  Biso   1.000  H  0.1254773405370029
  O187     1.0000 0.02421  0.37480  0.58940  Biso   1.000  O  -0.4221729374170397
  O188     1.0000 0.02422  0.34552  0.61841  Biso   1.000  O  -0.4221729374170397
  C352     1.0000 0.03274  0.35442  0.59811  Biso   1.000  C  0.7159076442791230
  C353     1.0000 0.05327  0.34140  0.58484  Biso   1.000  C  -0.0118976856513891
  C354     1.0000 0.06191  0.31802  0.59313  Biso   1.000  C  -0.1038683047155851
  H130     1.0000 0.05287  0.30905  0.60886  Biso   1.000  H  0.1309278840303973
  O189     1.0000 0.12480  0.40976  0.52436  Biso   1.000  O  -0.4221729374170397
  O190     1.0000 0.15403  0.38071  0.52442  Biso   1.000  O  -0.4221729374170397
  C355     1.0000 0.14511  0.40099  0.53296  Biso   1.000  C  0.7127028967230293
  C356     1.0000 0.15811  0.41423  0.55350  Biso   1.000  C  -0.0122636898865909
  C357     1.0000 0.18131  0.40570  0.56230  Biso   1.000  C  -0.1048485581128599
  H131     1.0000 0.19009  0.38978  0.55340  Biso   1.000  H  0.1351617084746938
  O191     1.0000 0.87632  0.59037  0.52450  Biso   1.000  O  -0.4221729374170397
  O192     1.0000 0.84711  0.61945  0.52449  Biso   1.000  O  -0.4222209511976119
  C358     1.0000 0.85602  0.59919  0.53311  Biso   1.000  C  0.6950576040147314
  C359     1.0000 0.84301  0.58602  0.55372  Biso   1.000  C  -0.0118976856513891
  C360     1.0000 0.81979  0.59459  0.56247  Biso   1.000  C  -0.1034383429738552
  H132     1.0000 0.81104  0.61050  0.55353  Biso   1.000  H  0.1308941163513784
  Cu33     1.0000 0.99990  0.39492  0.60362  Biso   1.000  Cu  1.0406494230648207
  Cu34     1.0000 0.99989  0.35988  0.63853  Biso   1.000  Cu  1.0406494230648207
  Cu35     1.0000 0.00026  0.60455  0.60450  Biso   1.000  Cu  1.0406494230648207
  Cu36     1.0000 0.00039  0.63962  0.63940  Biso   1.000  Cu  1.0406494230648207
  Cu37     1.0000 0.89467  0.39616  0.50011  Biso   1.000  Cu  1.0406494230648207
  Cu38     1.0000 0.85950  0.36136  0.50013  Biso   1.000  Cu  1.0406494230648207
  Cu39     1.0000 0.10492  0.39555  0.49990  Biso   1.000  Cu  1.0406494230648207
  Cu40     1.0000 0.13995  0.36060  0.49993  Biso   1.000  Cu  1.0406494230648207
  Cu41     1.0000 0.89614  0.60454  0.49992  Biso   1.000  Cu  1.0406494230648207
  Cu42     1.0000 0.86116  0.63951  0.49988  Biso   1.000  Cu  1.0413393352340830
  Cu43     1.0000 0.10446  0.60415  0.49970  Biso   1.000  Cu  1.0406494230648207
  Cu44     1.0000 0.13952  0.63905  0.49963  Biso   1.000  Cu  1.0406494230648207
  Cu45     1.0000 0.89604  0.50014  0.60487  Biso   1.000  Cu  1.0406494230648207
  Cu46     1.0000 0.86116  0.50023  0.63995  Biso   1.000  Cu  1.0413393352340830
  Cu47     1.0000 0.10433  0.49982  0.60431  Biso   1.000  Cu  1.0406494230648207
  Cu48     1.0000 0.13923  0.49978  0.63936  Biso   1.000  Cu  1.0406494230648207
  C361     1.0000 0.06505  0.43430  0.64585  Biso   1.000  C  -0.1034904595486104
  H133     1.0000 0.05873  0.44072  0.62772  Biso   1.000  H  0.1353432987476172
  C362     1.0000 0.08215  0.41693  0.69235  Biso   1.000  C  0.0232394493051358
  C363     1.0000 0.93524  0.56539  0.64690  Biso   1.000  C  -0.1048485581128599
  H134     1.0000 0.94158  0.55896  0.62878  Biso   1.000  H  0.1353432987476172
  C364     1.0000 0.91804  0.58283  0.69334  Biso   1.000  C  0.0232394493051358
  C365     1.0000 0.85427  0.56543  0.56550  Biso   1.000  C  -0.1034383429738552
  H135     1.0000 0.87238  0.55900  0.55913  Biso   1.000  H  0.1353432987476172
  C366     1.0000 0.80783  0.58286  0.58272  Biso   1.000  C  0.0229478679472027
  C367     1.0000 0.14678  0.43480  0.56521  Biso   1.000  C  -0.1048485581128599
  H136     1.0000 0.12868  0.44119  0.55880  Biso   1.000  H  0.1309278840303973
  C368     1.0000 0.19319  0.41745  0.58256  Biso   1.000  C  0.0232572624480647
  C369     1.0000 0.06527  0.35300  0.56458  Biso   1.000  C  -0.1048485581128599
  H137     1.0000 0.05888  0.37114  0.55825  Biso   1.000  H  0.1353545344044522
  C370     1.0000 0.08262  0.30652  0.58174  Biso   1.000  C  0.0232394493051358
  C371     1.0000 0.93536  0.64682  0.56496  Biso   1.000  C  -0.1048485581128599
  H138     1.0000 0.94173  0.62869  0.55857  Biso   1.000  H  0.1353545344044522
  C372     1.0000 0.91807  0.69325  0.58230  Biso   1.000  C  0.0232394493051358
  C373     1.0000 0.93516  0.43453  0.64629  Biso   1.000  C  -0.1048485581128599
  H139     1.0000 0.94146  0.44095  0.62815  Biso   1.000  H  0.1353545344044522
  C374     1.0000 0.91808  0.41714  0.69279  Biso   1.000  C  0.0232394493051358
  C375     1.0000 0.06522  0.56510  0.64659  Biso   1.000  C  -0.1048485581128599
  H140     1.0000 0.05881  0.55876  0.62846  Biso   1.000  H  0.1353545344044522
  C376     1.0000 0.08264  0.58224  0.69305  Biso   1.000  C  0.0232394493051358
  C377     1.0000 0.93414  0.35346  0.56479  Biso   1.000  C  -0.1048485581128599
  H141     1.0000 0.94056  0.37160  0.55848  Biso   1.000  H  0.1353545344044522
  C378     1.0000 0.91676  0.30697  0.58189  Biso   1.000  C  0.0232540050304117
  C379     1.0000 0.06550  0.64633  0.56510  Biso   1.000  C  -0.1048485581128599
  H142     1.0000 0.05905  0.62821  0.55879  Biso   1.000  H  0.1351617084746938
  C380     1.0000 0.08297  0.69281  0.58216  Biso   1.000  C  0.0232540050304117
  C381     1.0000 0.85317  0.43539  0.56559  Biso   1.000  C  -0.1048485581128599
  H143     1.0000 0.87131  0.44167  0.55914  Biso   1.000  H  0.1353545344044522
  C382     1.0000 0.80668  0.41836  0.58306  Biso   1.000  C  0.0232540050304117
  C383     1.0000 0.14652  0.56487  0.56485  Biso   1.000  C  -0.1048485581128599
  H144     1.0000 0.12840  0.55853  0.55842  Biso   1.000  H  0.1353432987476172
  C384     1.0000 0.19295  0.58206  0.58229  Biso   1.000  C  0.0232540050304117
  O193     1.0000 0.47544  0.90997  0.37521  Biso   1.000  O  -0.4221729374170397
  O194     1.0000 0.47531  0.88094  0.34595  Biso   1.000  O  -0.4222209511976119
  C385     1.0000 0.46688  0.90129  0.35484  Biso   1.000  C  0.7004201692634957
  C386     1.0000 0.44644  0.91468  0.34181  Biso   1.000  C  -0.0118976856513891
  C387     1.0000 0.43775  0.90643  0.31844  Biso   1.000  C  -0.1038683047155851
  H145     1.0000 0.44667  0.89061  0.30950  Biso   1.000  H  0.1353432987476172
  O195     1.0000 0.52446  0.09037  0.37617  Biso   1.000  O  -0.4221729374170397
  O196     1.0000 0.52448  0.11954  0.34706  Biso   1.000  O  -0.4221729374170397
  C388     1.0000 0.53301  0.09919  0.35585  Biso   1.000  C  0.7026345768003519
  C389     1.0000 0.55343  0.08591  0.34265  Biso   1.000  C  -0.0120855947804846
  C390     1.0000 0.56209  0.09450  0.31942  Biso   1.000  C  -0.1048485581128599
  H146     1.0000 0.55321  0.11051  0.31078  Biso   1.000  H  0.1353432987476172
  O197     1.0000 0.37531  0.97579  0.41002  Biso   1.000  O  -0.4221729374170397
  O198     1.0000 0.34610  0.97581  0.38095  Biso   1.000  O  -0.4222209511976119
  C391     1.0000 0.35494  0.96729  0.40127  Biso   1.000  C  0.7004201692634957
  C392     1.0000 0.34186  0.94682  0.41458  Biso   1.000  C  -0.0122633845473154
  C393     1.0000 0.31851  0.93814  0.40624  Biso   1.000  C  -0.1038683047155851
  H147     1.0000 0.30962  0.94706  0.39039  Biso   1.000  H  0.1353432987476172
  O199     1.0000 0.62454  0.02433  0.40951  Biso   1.000  O  -0.4221729374170397
  O200     1.0000 0.65365  0.02432  0.38034  Biso   1.000  O  -0.4221729374170397
  C394     1.0000 0.64487  0.03284  0.40068  Biso   1.000  C  0.7126431549636361
  C395     1.0000 0.65810  0.05322  0.41395  Biso   1.000  C  -0.0122636898865909
  C396     1.0000 0.68133  0.06190  0.40536  Biso   1.000  C  -0.1048485581128599
  H148     1.0000 0.68994  0.05307  0.38931  Biso   1.000  H  0.1351617084746938
  O201     1.0000 0.40974  0.87555  0.47578  Biso   1.000  O  -0.4221729374170397
  O202     1.0000 0.38061  0.84640  0.47578  Biso   1.000  O  -0.4222209511976119
  C397     1.0000 0.40095  0.85522  0.46724  Biso   1.000  C  0.6950576040147314
  C398     1.0000 0.41420  0.84215  0.44671  Biso   1.000  C  -0.0123205700094703
  C399     1.0000 0.40584  0.81881  0.43804  Biso   1.000  C  -0.1038683047155851
  H149     1.0000 0.39004  0.80990  0.44703  Biso   1.000  H  0.1353432987476172
  O203     1.0000 0.59095  0.12379  0.47570  Biso   1.000  O  -0.4221729374170397
  O204     1.0000 0.62011  0.15291  0.47567  Biso   1.000  O  -0.4222209511976119
  C400     1.0000 0.59975  0.14412  0.46717  Biso   1.000  C  0.7026345768003519
  C401     1.0000 0.58639  0.15733  0.44680  Biso   1.000  C  -0.0116768544177920
  C402     1.0000 0.59494  0.18057  0.43809  Biso   1.000  C  -0.1034904595486104
  H150     1.0000 0.61101  0.18920  0.44687  Biso   1.000  H  0.1353432987476172
  O205     1.0000 0.40969  0.02457  0.37599  Biso   1.000  O  -0.4221729374170397
  O206     1.0000 0.38064  0.02467  0.34676  Biso   1.000  O  -0.4222209511976119
  C403     1.0000 0.40095  0.03319  0.35568  Biso   1.000  C  0.7181012984560450
  C404     1.0000 0.41423  0.05372  0.34266  Biso   1.000  C  -0.0120855947804846
  C405     1.0000 0.40571  0.06252  0.31946  Biso   1.000  C  -0.1048485581128599
  H151     1.0000 0.38976  0.05364  0.31070  Biso   1.000  H  0.1353545344044522
  O207     1.0000 0.59025  0.97544  0.37552  Biso   1.000  O  -0.4221729374170397
  O208     1.0000 0.61927  0.97541  0.34626  Biso   1.000  O  -0.4221729374170397
  C406     1.0000 0.59899  0.96687  0.35518  Biso   1.000  C  0.7131480130737611
  C407     1.0000 0.58572  0.94639  0.34211  Biso   1.000  C  -0.0122636898865909
  C408     1.0000 0.59428  0.93764  0.31890  Biso   1.000  C  -0.1048485581128599
  H152     1.0000 0.61025  0.94651  0.31019  Biso   1.000  H  0.1309278840303973
  O209     1.0000 0.52403  0.87552  0.40941  Biso   1.000  O  -0.4221729374170397
  O210     1.0000 0.52399  0.84630  0.38035  Biso   1.000  O  -0.4222209511976119
  C409     1.0000 0.53252  0.85514  0.40068  Biso   1.000  C  0.7181012984560450
  C410     1.0000 0.55298  0.84206  0.41401  Biso   1.000  C  -0.0123205700094703
  C411     1.0000 0.56170  0.81871  0.40568  Biso   1.000  C  -0.1038683047155851
  H153     1.0000 0.55282  0.80981  0.38982  Biso   1.000  H  0.1308941163513784
  O211     1.0000 0.47559  0.12452  0.41040  Biso   1.000  O  -0.4221729374170397
  O212     1.0000 0.47559  0.15381  0.38141  Biso   1.000  O  -0.4221729374170397
  C412     1.0000 0.46703  0.14487  0.40168  Biso   1.000  C  0.7181012984560450
  C413     1.0000 0.44644  0.15785  0.41492  Biso   1.000  C  -0.0120456857668748
  C414     1.0000 0.43778  0.18120  0.40658  Biso   1.000  C  -0.1038683047155851
  H154     1.0000 0.44682  0.19015  0.39083  Biso   1.000  H  0.1353432987476172
  O213     1.0000 0.37477  0.09004  0.47610  Biso   1.000  O  -0.4221729374170397
  O214     1.0000 0.34549  0.11905  0.47615  Biso   1.000  O  -0.4221729374170397
  C415     1.0000 0.35436  0.09874  0.46763  Biso   1.000  C  0.7159076442791230
  C416     1.0000 0.34131  0.08541  0.44716  Biso   1.000  C  -0.0122633845473154
  C417     1.0000 0.31794  0.09371  0.43846  Biso   1.000  C  -0.1038683047155851
  H155     1.0000 0.30899  0.10950  0.44740  Biso   1.000  H  0.1240027946094012
  O215     1.0000 0.62423  0.90974  0.47558  Biso   1.000  O  -0.4221729374170397
  O216     1.0000 0.65345  0.88067  0.47554  Biso   1.000  O  -0.4221729374170397
  C418     1.0000 0.64459  0.90100  0.46704  Biso   1.000  C  0.7004201692634957
  C419     1.0000 0.65772  0.91429  0.44660  Biso   1.000  C  -0.0120855947804846
  C420     1.0000 0.68096  0.90574  0.43790  Biso   1.000  C  -0.1048485581128599
  H156     1.0000 0.68968  0.88981  0.44684  Biso   1.000  H  0.1351617084746938
  O217     1.0000 0.47569  0.09040  0.37602  Biso   1.000  O  -0.4221729374170397
  O218     1.0000 0.47567  0.11954  0.34688  Biso   1.000  O  -0.4222209511976119
  C421     1.0000 0.46717  0.09917  0.35567  Biso   1.000  C  0.6871253589639147
  C422     1.0000 0.44671  0.08587  0.34254  Biso   1.000  C  -0.0134455306617956
  C423     1.0000 0.43805  0.09426  0.31919  Biso   1.000  C  -0.1038683047155851
  H157     1.0000 0.44697  0.11013  0.31035  Biso   1.000  H  0.1309278840303973
  O219     1.0000 0.52416  0.90981  0.37523  Biso   1.000  O  -0.4221729374170397
  O220     1.0000 0.52411  0.88076  0.34600  Biso   1.000  O  -0.4222209511976119
  C424     1.0000 0.53268  0.90106  0.35487  Biso   1.000  C  0.7004201692634957
  C425     1.0000 0.55319  0.91432  0.34182  Biso   1.000  C  -0.0118976856513891
  C426     1.0000 0.56187  0.90598  0.31847  Biso   1.000  C  -0.1038683047155851
  H158     1.0000 0.55292  0.89015  0.30957  Biso   1.000  H  0.1353432987476172
  O221     1.0000 0.62452  0.97562  0.40971  Biso   1.000  O  -0.4221729374170397
  O222     1.0000 0.65369  0.97554  0.38060  Biso   1.000  O  -0.4222209511976119
  C427     1.0000 0.64488  0.96709  0.40098  Biso   1.000  C  0.7181012984560450
  C428     1.0000 0.65798  0.94668  0.41437  Biso   1.000  C  -0.0123205700094703
  C429     1.0000 0.68135  0.93800  0.40608  Biso   1.000  C  -0.1038683047155851
  H159     1.0000 0.69024  0.94689  0.39022  Biso   1.000  H  0.1309278840303973
  O223     1.0000 0.37530  0.02452  0.41004  Biso   1.000  O  -0.4221729374170397
  O224     1.0000 0.34612  0.02457  0.38093  Biso   1.000  O  -0.4221729374170397
  C430     1.0000 0.35495  0.03305  0.40127  Biso   1.000  C  0.7126431549636361
  C431     1.0000 0.34176  0.05342  0.41458  Biso   1.000  C  -0.0129528234078125
  C432     1.0000 0.31853  0.06210  0.40599  Biso   1.000  C  -0.1048485581128599
  H160     1.0000 0.30989  0.05324  0.38998  Biso   1.000  H  0.1254773405370029
  O225     1.0000 0.40920  0.12403  0.47580  Biso   1.000  O  -0.4221729374170397
  O226     1.0000 0.38010  0.15321  0.47582  Biso   1.000  O  -0.4222209511976119
  C433     1.0000 0.40040  0.14434  0.46724  Biso   1.000  C  0.7181012984560450
  C434     1.0000 0.41370  0.15746  0.44678  Biso   1.000  C  -0.0121502360574332
  C435     1.0000 0.40515  0.18067  0.43802  Biso   1.000  C  -0.1034904595486104
  H161     1.0000 0.38911  0.18935  0.44681  Biso   1.000  H  0.1353432987476172
  O227     1.0000 0.58984  0.87569  0.47532  Biso   1.000  O  -0.4221729374170397
  O228     1.0000 0.61895  0.84651  0.47524  Biso   1.000  O  -0.4221729374170397
  C436     1.0000 0.59864  0.85540  0.46670  Biso   1.000  C  0.6988662603979264
  C437     1.0000 0.58542  0.84234  0.44618  Biso   1.000  C  -0.0129528234078125
  C438     1.0000 0.59401  0.81914  0.43745  Biso   1.000  C  -0.1048485581128599
  H162     1.0000 0.60996  0.81044  0.44637  Biso   1.000  H  0.1308941163513784
  O229     1.0000 0.59012  0.02423  0.37549  Biso   1.000  O  -0.4221729374170397
  O230     1.0000 0.61908  0.02425  0.34616  Biso   1.000  O  -0.4222209511976119
  C439     1.0000 0.59878  0.03277  0.35510  Biso   1.000  C  0.6867714057319320
  C440     1.0000 0.58544  0.05331  0.34214  Biso   1.000  C  -0.0123205700094703
  C441     1.0000 0.59368  0.06203  0.31877  Biso   1.000  C  -0.1038683047155851
  H163     1.0000 0.60945  0.05307  0.30977  Biso   1.000  H  0.1353545344044522
  O231     1.0000 0.40951  0.97576  0.37573  Biso   1.000  O  -0.4221729374170397
  O232     1.0000 0.38043  0.97583  0.34652  Biso   1.000  O  -0.4221729374170397
  C442     1.0000 0.40073  0.96726  0.35537  Biso   1.000  C  0.7004201692634957
  C443     1.0000 0.41397  0.94682  0.34219  Biso   1.000  C  -0.0121502360574332
  C444     1.0000 0.40540  0.93815  0.31894  Biso   1.000  C  -0.1048485581128599
  H164     1.0000 0.38944  0.94706  0.31026  Biso   1.000  H  0.1254773405370029
  O233     1.0000 0.52441  0.12455  0.41044  Biso   1.000  O  -0.4221729374170397
  O234     1.0000 0.52444  0.15386  0.38147  Biso   1.000  O  -0.4222209511976119
  C445     1.0000 0.53298  0.14491  0.40175  Biso   1.000  C  0.7026345768003519
  C446     1.0000 0.55358  0.15786  0.41500  Biso   1.000  C  -0.0118841025737058
  C447     1.0000 0.56225  0.18123  0.40672  Biso   1.000  C  -0.1038683047155851
  H165     1.0000 0.55319  0.19023  0.39101  Biso   1.000  H  0.1353432987476172
  O235     1.0000 0.47527  0.87584  0.40951  Biso   1.000  O  -0.4221729374170397
  O236     1.0000 0.47514  0.84664  0.38042  Biso   1.000  O  -0.4222209511976119
  C448     1.0000 0.46665  0.85553  0.40075  Biso   1.000  C  0.7026345768003519
  C449     1.0000 0.44618  0.84245  0.41407  Biso   1.000  C  -0.0120855947804846
  C450     1.0000 0.43741  0.81924  0.40554  Biso   1.000  C  -0.1048485581128599
  H166     1.0000 0.44624  0.81054  0.38954  Biso   1.000  H  0.1308941163513784
  O237     1.0000 0.62529  0.08969  0.47572  Biso   1.000  O  -0.4221729374170397
  O238     1.0000 0.65461  0.11865  0.47572  Biso   1.000  O  -0.4221729374170397
  C451     1.0000 0.64567  0.09838  0.46718  Biso   1.000  C  0.7078182762814196
  C452     1.0000 0.65864  0.08510  0.44664  Biso   1.000  C  -0.0121502360574332
  C453     1.0000 0.68200  0.09338  0.43794  Biso   1.000  C  -0.1038683047155851
  H167     1.0000 0.69100  0.10912  0.44694  Biso   1.000  H  0.1351617084746938
  O239     1.0000 0.37557  0.90983  0.47572  Biso   1.000  O  -0.4221729374170397
  O240     1.0000 0.34630  0.88081  0.47573  Biso   1.000  O  -0.4221729374170397
  C454     1.0000 0.35522  0.90109  0.46718  Biso   1.000  C  0.7078182762814196
  C455     1.0000 0.34213  0.91435  0.44670  Biso   1.000  C  -0.0122636898865909
  C456     1.0000 0.31891  0.90579  0.43796  Biso   1.000  C  -0.1048485581128599
  H168     1.0000 0.31020  0.88982  0.44685  Biso   1.000  H  0.1353545344044522
  Cu49     1.0000 0.49974  0.89569  0.39525  Biso   1.000  Cu  1.0406494230648207
  Cu50     1.0000 0.49963  0.86072  0.36026  Biso   1.000  Cu  1.0413393352340830
  Cu51     1.0000 0.50003  0.10455  0.39617  Biso   1.000  Cu  1.0406494230648207
  Cu52     1.0000 0.50005  0.13963  0.36130  Biso   1.000  Cu  1.0413393352340830
  Cu53     1.0000 0.39537  0.00014  0.39585  Biso   1.000  Cu  1.0406494230648207
  Cu54     1.0000 0.36042  0.00023  0.36084  Biso   1.000  Cu  1.0406494230648207
  Cu55     1.0000 0.60444  0.99991  0.39547  Biso   1.000  Cu  1.0406494230648207
  Cu56     1.0000 0.63933  0.99987  0.36039  Biso   1.000  Cu  1.0406494230648207
  C457     1.0000 0.43461  0.93507  0.35337  Biso   1.000  C  -0.1048485581128599
  H169     1.0000 0.44103  0.94137  0.37151  Biso   1.000  H  0.1353545344044522
  C458     1.0000 0.41718  0.91800  0.30688  Biso   1.000  C  0.0232394493051358
  C459     1.0000 0.56511  0.06520  0.35376  Biso   1.000  C  -0.1048485581128599
  H170     1.0000 0.55882  0.05876  0.37189  Biso   1.000  H  0.1351617084746938
  C460     1.0000 0.58217  0.08267  0.30729  Biso   1.000  C  0.0232394493051358
  C461     1.0000 0.35335  0.93498  0.43500  Biso   1.000  C  -0.1048485581128599
  H171     1.0000 0.37146  0.94140  0.44137  Biso   1.000  H  0.1353432987476172
  C462     1.0000 0.30692  0.91756  0.41777  Biso   1.000  C  0.0232572624480647
  C463     1.0000 0.64701  0.06482  0.43471  Biso   1.000  C  -0.1048485581128599
  H172     1.0000 0.62889  0.05851  0.44115  Biso   1.000  H  0.1309278840303973
  C464     1.0000 0.69347  0.08193  0.41724  Biso   1.000  C  0.0232572624480647
  C465     1.0000 0.43457  0.85366  0.43477  Biso   1.000  C  -0.1048485581128599
  H173     1.0000 0.44096  0.87177  0.44117  Biso   1.000  H  0.1353432987476172
  C466     1.0000 0.41728  0.80723  0.41741  Biso   1.000  C  0.0232394493051358
  C467     1.0000 0.56560  0.14623  0.43525  Biso   1.000  C  -0.1048485581128599
  H174     1.0000 0.55918  0.12810  0.44157  Biso   1.000  H  0.1353432987476172
  C468     1.0000 0.58297  0.19271  0.41810  Biso   1.000  C  0.0232394493051358
  C469     1.0000 0.43485  0.06540  0.35395  Biso   1.000  C  -0.1048485581128599
  H175     1.0000 0.44125  0.05900  0.37206  Biso   1.000  H  0.1353432987476172
  C470     1.0000 0.41749  0.08275  0.30754  Biso   1.000  C  0.0232394493051358
  C471     1.0000 0.56506  0.93472  0.35332  Biso   1.000  C  -0.1048485581128599
  H176     1.0000 0.55864  0.94110  0.37143  Biso   1.000  H  0.1353432987476172
  C472     1.0000 0.58247  0.91747  0.30690  Biso   1.000  C  0.0233745482449430
  C473     1.0000 0.56480  0.85355  0.43445  Biso   1.000  C  -0.1048485581128599
  H177     1.0000 0.55836  0.87166  0.44082  Biso   1.000  H  0.1353545344044522
  C474     1.0000 0.58228  0.80714  0.41724  Biso   1.000  C  0.0232540050304117
  C475     1.0000 0.43445  0.14629  0.43521  Biso   1.000  C  -0.1048485581128599
  H178     1.0000 0.44087  0.12818  0.44158  Biso   1.000  H  0.1353432987476172
  C476     1.0000 0.41709  0.19274  0.41796  Biso   1.000  C  0.0232394493051358
  C477     1.0000 0.35289  0.06507  0.43528  Biso   1.000  C  -0.1048485581128599
  H179     1.0000 0.37101  0.05875  0.44170  Biso   1.000  H  0.1254773405370029
  C478     1.0000 0.30644  0.08221  0.41781  Biso   1.000  C  0.0232394493051358
  C479     1.0000 0.64649  0.93488  0.43483  Biso   1.000  C  -0.1048485581128599
  H180     1.0000 0.62835  0.94128  0.44115  Biso   1.000  H  0.1353545344044522
  C480     1.0000 0.69296  0.91747  0.41769  Biso   1.000  C  0.0232394493051358
  O241     1.0000 0.52438  0.90915  0.62447  Biso   1.000  O  -0.4221729374170397
  O242     1.0000 0.52441  0.88000  0.65360  Biso   1.000  O  -0.4221729374170397
  C481     1.0000 0.53292  0.90035  0.64479  Biso   1.000  C  0.6988662603979264
  C482     1.0000 0.55333  0.91365  0.65796  Biso   1.000  C  -0.0120855947804846
  C483     1.0000 0.56204  0.90511  0.68120  Biso   1.000  C  -0.1048485581128599
  H181     1.0000 0.55320  0.88910  0.68989  Biso   1.000  H  0.1353545344044522
  O243     1.0000 0.47594  0.09059  0.62414  Biso   1.000  O  -0.4221729374170397
  O244     1.0000 0.47600  0.11975  0.65327  Biso   1.000  O  -0.4221729374170397
  C484     1.0000 0.46747  0.09939  0.64450  Biso   1.000  C  0.7159076442791230
  C485     1.0000 0.44713  0.08607  0.65776  Biso   1.000  C  -0.0120855947804846
  C486     1.0000 0.43847  0.09464  0.68101  Biso   1.000  C  -0.1048485581128599
  H182     1.0000 0.44729  0.11069  0.68963  Biso   1.000  H  0.1351617084746938
  O245     1.0000 0.37607  0.02436  0.59101  Biso   1.000  O  -0.4221729374170397
  O246     1.0000 0.34698  0.02435  0.62021  Biso   1.000  O  -0.4221729374170397
  C487     1.0000 0.35575  0.03290  0.59986  Biso   1.000  C  0.7181012984560450
  C488     1.0000 0.34254  0.05333  0.58663  Biso   1.000  C  -0.0121502360574332
  C489     1.0000 0.31929  0.06199  0.59522  Biso   1.000  C  -0.1034383429738552
  H183     1.0000 0.31064  0.05310  0.61122  Biso   1.000  H  0.1353432987476172
  O247     1.0000 0.62405  0.97533  0.59061  Biso   1.000  O  -0.4221729374170397
  O248     1.0000 0.65325  0.97518  0.61969  Biso   1.000  O  -0.4222209511976119
  C490     1.0000 0.64439  0.96674  0.59933  Biso   1.000  C  0.6950576040147314
  C491     1.0000 0.65745  0.94630  0.58593  Biso   1.000  C  -0.0134432119924920
  C492     1.0000 0.68081  0.93760  0.59421  Biso   1.000  C  -0.1038683047155851
  H184     1.0000 0.68970  0.94646  0.61009  Biso   1.000  H  0.1351617084746938
  O249     1.0000 0.58995  0.87512  0.52407  Biso   1.000  O  -0.4221729374170397
  O250     1.0000 0.61903  0.84592  0.52400  Biso   1.000  O  -0.4221729374170397
  C493     1.0000 0.59869  0.85471  0.53251  Biso   1.000  C  0.6988662603979264
  C494     1.0000 0.58539  0.84153  0.55291  Biso   1.000  C  -0.0116768544177920
  C495     1.0000 0.59379  0.81818  0.56153  Biso   1.000  C  -0.1038683047155851
  H185     1.0000 0.60964  0.80933  0.55257  Biso   1.000  H  0.1353432987476172
  O251     1.0000 0.40928  0.12444  0.52451  Biso   1.000  O  -0.4221729374170397
  O252     1.0000 0.38019  0.15364  0.52462  Biso   1.000  O  -0.4222209511976119
  C496     1.0000 0.40060  0.14484  0.53301  Biso   1.000  C  0.7026345768003519
  C497     1.0000 0.41409  0.15803  0.55329  Biso   1.000  C  -0.0122633845473154
  C498     1.0000 0.40579  0.18139  0.56197  Biso   1.000  C  -0.1038683047155851
  H186     1.0000 0.38982  0.19021  0.55320  Biso   1.000  H  0.1353432987476172
  O253     1.0000 0.41038  0.97554  0.62511  Biso   1.000  O  -0.4221729374170397
  O254     1.0000 0.38142  0.97554  0.65444  Biso   1.000  O  -0.4221729374170397
  C499     1.0000 0.40169  0.96700  0.64549  Biso   1.000  C  0.7004201692634957
  C500     1.0000 0.41494  0.94644  0.65847  Biso   1.000  C  -0.0121502360574332
  C501     1.0000 0.40664  0.93780  0.68184  Biso   1.000  C  -0.1038683047155851
  H187     1.0000 0.39091  0.94685  0.69081  Biso   1.000  H  0.1353432987476172
  O255     1.0000 0.58992  0.02411  0.62485  Biso   1.000  O  -0.4221729374170397
  O256     1.0000 0.61892  0.02408  0.65413  Biso   1.000  O  -0.4222209511976119
  C502     1.0000 0.59865  0.03267  0.64519  Biso   1.000  C  0.7181012984560450
  C503     1.0000 0.58542  0.05329  0.65812  Biso   1.000  C  -0.0122857281426626
  C504     1.0000 0.59369  0.06200  0.68148  Biso   1.000  C  -0.1038683047155851
  H188     1.0000 0.60939  0.05297  0.69050  Biso   1.000  H  0.1224915584291129
  O257     1.0000 0.47564  0.87498  0.59020  Biso   1.000  O  -0.4221729374170397
  O258     1.0000 0.47564  0.84565  0.61915  Biso   1.000  O  -0.4221729374170397
  C505     1.0000 0.46712  0.85458  0.59887  Biso   1.000  C  0.6988662603979264
  C506     1.0000 0.44663  0.84158  0.58553  Biso   1.000  C  -0.0116768544177920
  C507     1.0000 0.43794  0.81821  0.59380  Biso   1.000  C  -0.1038683047155851
  H189     1.0000 0.44689  0.80925  0.60959  Biso   1.000  H  0.1351617084746938
  O259     1.0000 0.52458  0.12479  0.58968  Biso   1.000  O  -0.4221729374170397
  O260     1.0000 0.52465  0.15410  0.61866  Biso   1.000  O  -0.4221729374170397
  C508     1.0000 0.53316  0.14516  0.59836  Biso   1.000  C  0.7026345768003519
  C509     1.0000 0.55372  0.15812  0.58508  Biso   1.000  C  -0.0118976856513891
  C510     1.0000 0.56238  0.18150  0.59335  Biso   1.000  C  -0.1038683047155851
  H190     1.0000 0.55332  0.19050  0.60906  Biso   1.000  H  0.1353432987476172
  O261     1.0000 0.37565  0.90998  0.52451  Biso   1.000  O  -0.4221729374170397
  O262     1.0000 0.34632  0.88103  0.52456  Biso   1.000  O  -0.4222209511976119
  C511     1.0000 0.35527  0.90132  0.53307  Biso   1.000  C  0.7026345768003519
  C512     1.0000 0.34230  0.91465  0.55361  Biso   1.000  C  -0.0118841025737058
  C513     1.0000 0.31892  0.90640  0.56227  Biso   1.000  C  -0.1038683047155851
  H191     1.0000 0.30994  0.89065  0.55326  Biso   1.000  H  0.1353432987476172
  O263     1.0000 0.62506  0.08950  0.52448  Biso   1.000  O  -0.4221729374170397
  O264     1.0000 0.65439  0.11846  0.52454  Biso   1.000  O  -0.4222209511976119
  C514     1.0000 0.64542  0.09817  0.53305  Biso   1.000  C  0.7004201692634957
  C515     1.0000 0.65837  0.08485  0.55359  Biso   1.000  C  -0.0119772664224163
  C516     1.0000 0.68175  0.09308  0.56226  Biso   1.000  C  -0.1041901522862805
  H192     1.0000 0.69075  0.10882  0.55326  Biso   1.000  H  0.1351617084746938
  O265     1.0000 0.52469  0.09057  0.62395  Biso   1.000  O  -0.4221729374170397
  O266     1.0000 0.52476  0.11975  0.65306  Biso   1.000  O  -0.4221729374170397
  C517     1.0000 0.53324  0.09938  0.64427  Biso   1.000  C  0.7159076442791230
  C518     1.0000 0.55360  0.08606  0.65750  Biso   1.000  C  -0.0120855947804846
  C519     1.0000 0.56227  0.09465  0.68073  Biso   1.000  C  -0.1048485581128599
  H193     1.0000 0.55347  0.11072  0.68932  Biso   1.000  H  0.1254773405370029
  O267     1.0000 0.47564  0.90917  0.62447  Biso   1.000  O  -0.4221729374170397
  O268     1.0000 0.47561  0.87999  0.65357  Biso   1.000  O  -0.4221729374170397
  C520     1.0000 0.46712  0.90036  0.64479  Biso   1.000  C  0.7131480130737611
  C521     1.0000 0.44676  0.91368  0.65800  Biso   1.000  C  -0.0120855947804846
  C522     1.0000 0.43804  0.90514  0.68124  Biso   1.000  C  -0.1034904595486104
  H194     1.0000 0.44682  0.88908  0.68988  Biso   1.000  H  0.1308941163513784
  O269     1.0000 0.62425  0.02406  0.59076  Biso   1.000  O  -0.4221729374170397
  O270     1.0000 0.65341  0.02399  0.61988  Biso   1.000  O  -0.4221729374170397
  C523     1.0000 0.64461  0.03254  0.59955  Biso   1.000  C  0.7159076442791230
  C524     1.0000 0.65784  0.05292  0.58625  Biso   1.000  C  -0.0121502360574332
  C525     1.0000 0.68110  0.06157  0.59481  Biso   1.000  C  -0.1034904595486104
  H195     1.0000 0.68974  0.05272  0.61084  Biso   1.000  H  0.1353545344044522
  O271     1.0000 0.37624  0.97557  0.59078  Biso   1.000  O  -0.4221729374170397
  O272     1.0000 0.34715  0.97551  0.61997  Biso   1.000  O  -0.4222209511976119
  C526     1.0000 0.35593  0.96701  0.59960  Biso   1.000  C  0.7181012984560450
  C527     1.0000 0.34275  0.94661  0.58628  Biso   1.000  C  -0.0118976856513891
  C528     1.0000 0.31949  0.93792  0.59482  Biso   1.000  C  -0.1034904595486104
  H196     1.0000 0.31083  0.94677  0.61083  Biso   1.000  H  0.1308941163513784
  O273     1.0000 0.59107  0.12398  0.52444  Biso   1.000  O  -0.4221729374170397
  O274     1.0000 0.62025  0.15309  0.52448  Biso   1.000  O  -0.4221729374170397
  C529     1.0000 0.59987  0.14432  0.53296  Biso   1.000  C  0.7159076442791230
  C530     1.0000 0.58652  0.15757  0.55329  Biso   1.000  C  -0.0121502360574332
  C531     1.0000 0.59507  0.18082  0.56198  Biso   1.000  C  -0.1041901522862805
  H197     1.0000 0.61115  0.18944  0.55320  Biso   1.000  H  0.1353545344044522
  O275     1.0000 0.40967  0.87553  0.52454  Biso   1.000  O  -0.4221729374170397
  O276     1.0000 0.38048  0.84644  0.52458  Biso   1.000  O  -0.4221729374170397
  C532     1.0000 0.40083  0.85522  0.53309  Biso   1.000  C  0.7126431549636361
  C533     1.0000 0.41408  0.84203  0.55350  Biso   1.000  C  -0.0122636898865909
  C534     1.0000 0.40549  0.81879  0.56218  Biso   1.000  C  -0.1048485581128599
  H198     1.0000 0.38949  0.81014  0.55330  Biso   1.000  H  0.1308941163513784
  O277     1.0000 0.58990  0.97534  0.62495  Biso   1.000  O  -0.4221729374170397
  O278     1.0000 0.61893  0.97525  0.65420  Biso   1.000  O  -0.4221729374170397
  C535     1.0000 0.59861  0.96677  0.64531  Biso   1.000  C  0.7004201692634957
  C536     1.0000 0.58530  0.94627  0.65833  Biso   1.000  C  -0.0118976856513891
  C537     1.0000 0.59359  0.93763  0.68171  Biso   1.000  C  -0.1038683047155851
  H199     1.0000 0.60936  0.94663  0.69065  Biso   1.000  H  0.1308941163513784
  O279     1.0000 0.41056  0.02430  0.62496  Biso   1.000  O  -0.4221729374170397
  O280     1.0000 0.38162  0.02433  0.65430  Biso   1.000  O  -0.4222209511976119
  C538     1.0000 0.40190  0.03285  0.64534  Biso   1.000  C  0.6988662603979264
  C539     1.0000 0.41522  0.05338  0.65830  Biso   1.000  C  -0.0116768544177920
  C540     1.0000 0.40698  0.06206  0.68167  Biso   1.000  C  -0.1041901522862805
  H200     1.0000 0.39125  0.05305  0.69067  Biso   1.000  H  0.1309278840303973
  O281     1.0000 0.47575  0.12465  0.58977  Biso   1.000  O  -0.4221729374170397
  O282     1.0000 0.47582  0.15393  0.61878  Biso   1.000  O  -0.4221729374170397
  C541     1.0000 0.46719  0.14498  0.59854  Biso   1.000  C  0.7078182762814196
  C542     1.0000 0.44658  0.15798  0.58541  Biso   1.000  C  -0.0122636898865909
  C543     1.0000 0.43786  0.18121  0.59397  Biso   1.000  C  -0.1048485581128599
  H201     1.0000 0.44690  0.19000  0.60981  Biso   1.000  H  0.1353432987476172
  O283     1.0000 0.52438  0.87510  0.59011  Biso   1.000  O  -0.4221729374170397
  O284     1.0000 0.52442  0.84581  0.61910  Biso   1.000  O  -0.4221729374170397
  C544     1.0000 0.53293  0.85474  0.59880  Biso   1.000  C  0.7131480130737611
  C545     1.0000 0.55337  0.84168  0.58546  Biso   1.000  C  -0.0129528234078125
  C546     1.0000 0.56216  0.81847  0.59397  Biso   1.000  C  -0.1048485581128599
  H202     1.0000 0.55333  0.80973  0.60995  Biso   1.000  H  0.1351617084746938
  O285     1.0000 0.62389  0.90965  0.52443  Biso   1.000  O  -0.4221729374170397
  O286     1.0000 0.65310  0.88058  0.52438  Biso   1.000  O  -0.4222209511976119
  C547     1.0000 0.64419  0.90084  0.53301  Biso   1.000  C  0.7159076442791230
  C548     1.0000 0.65723  0.91399  0.55361  Biso   1.000  C  -0.0121502360574332
  C549     1.0000 0.68046  0.90541  0.56232  Biso   1.000  C  -0.1034904595486104
  H203     1.0000 0.68921  0.88952  0.55334  Biso   1.000  H  0.1351617084746938
  O287     1.0000 0.37528  0.08996  0.52484  Biso   1.000  O  -0.4221729374170397
  O288     1.0000 0.34601  0.11897  0.52498  Biso   1.000  O  -0.4222209511976119
  C550     1.0000 0.35496  0.09867  0.53348  Biso   1.000  C  0.7181012984560450
  C551     1.0000 0.34204  0.08537  0.55406  Biso   1.000  C  -0.0122633845473154
  C552     1.0000 0.31867  0.09360  0.56276  Biso   1.000  C  -0.1034383429738552
  H204     1.0000 0.30968  0.10935  0.55378  Biso   1.000  H  0.1309278840303973
  Cu57     1.0000 0.50000  0.89502  0.60440  Biso   1.000  Cu  1.0406494230648207
  Cu58     1.0000 0.50002  0.85992  0.63928  Biso   1.000  Cu  1.0406494230648207
  Cu59     1.0000 0.50024  0.10475  0.60396  Biso   1.000  Cu  1.0406494230648207
  Cu60     1.0000 0.50032  0.13983  0.63884  Biso   1.000  Cu  1.0406494230648207
  Cu61     1.0000 0.39558  0.89563  0.50014  Biso   1.000  Cu  1.0406494230648207
  Cu62     1.0000 0.36049  0.86076  0.50017  Biso   1.000  Cu  1.0406494230648207
  Cu63     1.0000 0.60407  0.89547  0.49987  Biso   1.000  Cu  1.0406494230648207
  Cu64     1.0000 0.63907  0.86051  0.49978  Biso   1.000  Cu  1.0406494230648207
  Cu65     1.0000 0.39503  0.10420  0.50031  Biso   1.000  Cu  1.0406494230648207
  Cu66     1.0000 0.36001  0.13914  0.50041  Biso   1.000  Cu  1.0413393352340830
  Cu67     1.0000 0.60518  0.10383  0.50008  Biso   1.000  Cu  1.0406494230648207
  Cu68     1.0000 0.64028  0.13869  0.50011  Biso   1.000  Cu  1.0406494230648207
  Cu69     1.0000 0.39622  0.99994  0.60505  Biso   1.000  Cu  1.0406494230648207
  Cu70     1.0000 0.36137  0.99993  0.64016  Biso   1.000  Cu  1.0406494230648207
  Cu71     1.0000 0.60412  0.99971  0.60489  Biso   1.000  Cu  1.0406494230648207
  Cu72     1.0000 0.63905  0.99961  0.63991  Biso   1.000  Cu  1.0413393352340830
  C553     1.0000 0.56497  0.93434  0.64678  Biso   1.000  C  -0.1048485581128599
  H205     1.0000 0.55864  0.94074  0.62864  Biso   1.000  H  0.1353545344044522
  C554     1.0000 0.58212  0.91700  0.69326  Biso   1.000  C  0.0232572624480647
  C555     1.0000 0.43550  0.06533  0.64666  Biso   1.000  C  -0.1048485581128599
  H206     1.0000 0.44179  0.05890  0.62852  Biso   1.000  H  0.1353545344044522
  C556     1.0000 0.41844  0.08274  0.69315  Biso   1.000  C  0.0232394493051358
  C557     1.0000 0.35367  0.06504  0.56594  Biso   1.000  C  -0.1048485581128599
  H207     1.0000 0.37180  0.05875  0.55949  Biso   1.000  H  0.1353432987476172
  C558     1.0000 0.30717  0.08207  0.58338  Biso   1.000  C  0.0232540050304117
  C559     1.0000 0.64597  0.93454  0.56543  Biso   1.000  C  -0.1034904595486104
  H208     1.0000 0.62785  0.94098  0.55910  Biso   1.000  H  0.1353432987476172
  C560     1.0000 0.69244  0.91711  0.58257  Biso   1.000  C  0.0232394493051358
  C561     1.0000 0.56498  0.85296  0.56481  Biso   1.000  C  -0.1048485581128599
  H209     1.0000 0.55858  0.87108  0.55845  Biso   1.000  H  0.1351617084746938
  C562     1.0000 0.58234  0.80654  0.58212  Biso   1.000  C  0.0233745482449430
  C563     1.0000 0.43468  0.14665  0.56495  Biso   1.000  C  -0.1048485581128599
  H210     1.0000 0.44102  0.12852  0.55854  Biso   1.000  H  0.1353545344044522
  C564     1.0000 0.41751  0.19310  0.58237  Biso   1.000  C  0.0232540050304117
  C565     1.0000 0.43520  0.93445  0.64687  Biso   1.000  C  -0.1048485581128599
  H211     1.0000 0.44153  0.94086  0.62874  Biso   1.000  H  0.1353432987476172
  C566     1.0000 0.41802  0.91710  0.69335  Biso   1.000  C  0.0232540050304117
  C567     1.0000 0.56518  0.06527  0.64644  Biso   1.000  C  -0.1048485581128599
  H212     1.0000 0.55886  0.05882  0.62832  Biso   1.000  H  0.1353432987476172
  C568     1.0000 0.58227  0.08273  0.69291  Biso   1.000  C  0.0232394493051358
  C569     1.0000 0.43476  0.85317  0.56519  Biso   1.000  C  -0.1048485581128599
  H213     1.0000 0.44120  0.87130  0.55888  Biso   1.000  H  0.1353545344044522
  C570     1.0000 0.41731  0.80670  0.58228  Biso   1.000  C  0.0232540050304117
  C571     1.0000 0.56573  0.14648  0.56485  Biso   1.000  C  -0.1048485581128599
  H214     1.0000 0.55932  0.12834  0.55854  Biso   1.000  H  0.1353545344044522
  C572     1.0000 0.58310  0.19297  0.58197  Biso   1.000  C  0.0228992450093916
  C573     1.0000 0.35390  0.93496  0.56556  Biso   1.000  C  -0.1048485581128599
  H215     1.0000 0.37204  0.94126  0.55916  Biso   1.000  H  0.1351617084746938
  C574     1.0000 0.30739  0.91787  0.58291  Biso   1.000  C  0.0232540050304117
  C575     1.0000 0.64673  0.06457  0.56552  Biso   1.000  C  -0.1048485581128599
  H216     1.0000 0.62859  0.05829  0.55911  Biso   1.000  H  0.1309278840303973
  C576     1.0000 0.69324  0.08160  0.58292  Biso   1.000  C  0.0232572624480647
  O289     1.0000 0.47551  0.40949  0.87603  Biso   1.000  O  -0.4221729374170397
  O290     1.0000 0.47547  0.38040  0.84684  Biso   1.000  O  -0.4222209511976119
  C577     1.0000 0.46701  0.40077  0.85565  Biso   1.000  C  0.7026345768003519
  C578     1.0000 0.44664  0.41417  0.84249  Biso   1.000  C  -0.0122848725318986
  C579     1.0000 0.43797  0.40583  0.81913  Biso   1.000  C  -0.1038683047155851
  H217     1.0000 0.44682  0.38990  0.81032  Biso   1.000  H  0.1351617084746938
  O291     1.0000 0.52417  0.59084  0.87536  Biso   1.000  O  -0.4221729374170397
  O292     1.0000 0.52421  0.61994  0.84618  Biso   1.000  O  -0.4222209511976119
  C580     1.0000 0.53265  0.59955  0.85496  Biso   1.000  C  0.7159076442791230
  C581     1.0000 0.55298  0.58613  0.84179  Biso   1.000  C  -0.0122857281426626
  C582     1.0000 0.56168  0.59445  0.81843  Biso   1.000  C  -0.1038683047155851
  H218     1.0000 0.55287  0.61038  0.80958  Biso   1.000  H  0.1351617084746938
  O293     1.0000 0.37549  0.47582  0.90979  Biso   1.000  O  -0.4221729374170397
  O294     1.0000 0.34634  0.47591  0.88066  Biso   1.000  O  -0.4221729374170397
  C583     1.0000 0.35513  0.46735  0.90098  Biso   1.000  C  0.6988662603979264
  C584     1.0000 0.34190  0.44694  0.91423  Biso   1.000  C  -0.0120855947804846
  C585     1.0000 0.31866  0.43829  0.90562  Biso   1.000  C  -0.1048485581128599
  H219     1.0000 0.31002  0.44720  0.88963  Biso   1.000  H  0.1351617084746938
  O295     1.0000 0.62388  0.52452  0.90954  Biso   1.000  O  -0.4221729374170397
  O296     1.0000 0.65301  0.52457  0.88038  Biso   1.000  O  -0.4222209511976119
  C586     1.0000 0.64422  0.53305  0.90075  Biso   1.000  C  0.7181012984560450
  C587     1.0000 0.65745  0.55339  0.91411  Biso   1.000  C  -0.0121502360574332
  C588     1.0000 0.68069  0.56208  0.90556  Biso   1.000  C  -0.1048485581128599
  H220     1.0000 0.68932  0.55328  0.88951  Biso   1.000  H  0.1254773405370029
  O297     1.0000 0.40896  0.37583  0.97550  Biso   1.000  O  -0.4221729374170397
  O298     1.0000 0.37982  0.34669  0.97549  Biso   1.000  O  -0.4221729374170397
  C589     1.0000 0.40015  0.35551  0.96695  Biso   1.000  C  0.6988662603979264
  C590     1.0000 0.41345  0.34235  0.94654  Biso   1.000  C  -0.0120855947804846
  C591     1.0000 0.40489  0.31912  0.93782  Biso   1.000  C  -0.1048485581128599
  H221     1.0000 0.38884  0.31048  0.94661  Biso   1.000  H  0.1254773405370029
  O299     1.0000 0.59044  0.62422  0.97563  Biso   1.000  O  -0.4221729374170397
  O300     1.0000 0.61961  0.65333  0.97564  Biso   1.000  O  -0.4221729374170397
  C592     1.0000 0.59930  0.64451  0.96706  Biso   1.000  C  0.7078182762814196
  C593     1.0000 0.58613  0.65765  0.94656  Biso   1.000  C  -0.0120855947804846
  C594     1.0000 0.59475  0.68087  0.93788  Biso   1.000  C  -0.1034904595486104
  H222     1.0000 0.61072  0.68954  0.94680  Biso   1.000  H  0.1353432987476172
  O301     1.0000 0.40988  0.52456  0.87559  Biso   1.000  O  -0.4221729374170397
  O302     1.0000 0.38086  0.52462  0.84633  Biso   1.000  O  -0.4221729374170397
  C595     1.0000 0.40117  0.53312  0.85522  Biso   1.000  C  0.7181012984560450
  C596     1.0000 0.41444  0.55365  0.84219  Biso   1.000  C  -0.0122633845473154
  C597     1.0000 0.40610  0.56230  0.81883  Biso   1.000  C  -0.1038683047155851
  H223     1.0000 0.39032  0.55329  0.80990  Biso   1.000  H  0.1353545344044522
  O303     1.0000 0.58957  0.47583  0.87529  Biso   1.000  O  -0.4221729374170397
  O304     1.0000 0.61853  0.47582  0.84597  Biso   1.000  O  -0.4222209511976119
  C598     1.0000 0.59826  0.46727  0.85492  Biso   1.000  C  0.7181012984560450
  C599     1.0000 0.58499  0.44669  0.84197  Biso   1.000  C  -0.0122857281426626
  C600     1.0000 0.59327  0.43799  0.81861  Biso   1.000  C  -0.1038683047155851
  H224     1.0000 0.60899  0.44702  0.80960  Biso   1.000  H  0.1353432987476172
  O305     1.0000 0.52419  0.37528  0.91040  Biso   1.000  O  -0.4221729374170397
  O306     1.0000 0.52423  0.34600  0.88140  Biso   1.000  O  -0.4222209511976119
  C601     1.0000 0.53277  0.35493  0.90169  Biso   1.000  C  0.7181012984560450
  C602     1.0000 0.55337  0.34200  0.91494  Biso   1.000  C  -0.0120456857668748
  C603     1.0000 0.56204  0.31863  0.90666  Biso   1.000  C  -0.1038683047155851
  H225     1.0000 0.55298  0.30962  0.89096  Biso   1.000  H  0.1353432987476172
  O307     1.0000 0.47579  0.62522  0.90990  Biso   1.000  O  -0.4221729374170397
  O308     1.0000 0.47574  0.65452  0.88092  Biso   1.000  O  -0.4221729374170397
  C604     1.0000 0.46729  0.64563  0.90126  Biso   1.000  C  0.7004201692634957
  C605     1.0000 0.44690  0.65870  0.91469  Biso   1.000  C  -0.0116768544177920
  C606     1.0000 0.43819  0.68207  0.90645  Biso   1.000  C  -0.1038683047155851
  H226     1.0000 0.44707  0.69101  0.89060  Biso   1.000  H  0.1353545344044522
  O309     1.0000 0.37597  0.59049  0.97579  Biso   1.000  O  -0.4221729374170397
  O310     1.0000 0.34673  0.61953  0.97586  Biso   1.000  O  -0.4221729374170397
  C607     1.0000 0.35562  0.59925  0.96727  Biso   1.000  C  0.7159076442791230
  C608     1.0000 0.34253  0.58602  0.94675  Biso   1.000  C  -0.0120855947804846
  C609     1.0000 0.31931  0.59457  0.93802  Biso   1.000  C  -0.1034904595486104
  H227     1.0000 0.31057  0.61051  0.94693  Biso   1.000  H  0.1353432987476172
  O311     1.0000 0.62496  0.41042  0.97560  Biso   1.000  O  -0.4221729374170397
  O312     1.0000 0.65426  0.38144  0.97550  Biso   1.000  O  -0.4222209511976119
  C610     1.0000 0.64531  0.40173  0.96701  Biso   1.000  C  0.7131480130737611
  C611     1.0000 0.65823  0.41503  0.94645  Biso   1.000  C  -0.0121502360574332
  C612     1.0000 0.68160  0.40680  0.93774  Biso   1.000  C  -0.1038683047155851
  H228     1.0000 0.69063  0.39108  0.94674  Biso   1.000  H  0.1308941163513784
  O313     1.0000 0.47545  0.59082  0.87588  Biso   1.000  O  -0.4221729374170397
  O314     1.0000 0.47539  0.61995  0.84671  Biso   1.000  O  -0.4222209511976119
  C613     1.0000 0.46685  0.59963  0.85559  Biso   1.000  C  0.7026345768003519
  C614     1.0000 0.44637  0.58633  0.84251  Biso   1.000  C  -0.0120855947804846
  C615     1.0000 0.43761  0.59486  0.81929  Biso   1.000  C  -0.1048485581128599
  H229     1.0000 0.44642  0.61087  0.81059  Biso   1.000  H  0.1308941163513784
  O315     1.0000 0.52423  0.40939  0.87607  Biso   1.000  O  -0.4221729374170397
  O316     1.0000 0.52426  0.38026  0.84691  Biso   1.000  O  -0.4221729374170397
  C616     1.0000 0.53277  0.40061  0.85573  Biso   1.000  C  0.7159076442791230
  C617     1.0000 0.55314  0.41393  0.84252  Biso   1.000  C  -0.0120855947804846
  C618     1.0000 0.56184  0.40536  0.81929  Biso   1.000  C  -0.1048485581128599
  H230     1.0000 0.55304  0.38930  0.81067  Biso   1.000  H  0.1308941163513784
  O317     1.0000 0.62402  0.47578  0.90932  Biso   1.000  O  -0.4221729374170397
  O318     1.0000 0.65311  0.47581  0.88013  Biso   1.000  O  -0.4221729374170397
  C619     1.0000 0.64435  0.46728  0.90048  Biso   1.000  C  0.6988662603979264
  C620     1.0000 0.65762  0.44692  0.91376  Biso   1.000  C  -0.0120855947804846
  C621     1.0000 0.68087  0.43828  0.90516  Biso   1.000  C  -0.1034904595486104
  H231     1.0000 0.68947  0.44712  0.88910  Biso   1.000  H  0.1353545344044522
  O319     1.0000 0.37573  0.52457  0.90995  Biso   1.000  O  -0.4221729374170397
  O320     1.0000 0.34656  0.52469  0.88084  Biso   1.000  O  -0.4222209511976119
  C622     1.0000 0.35539  0.53315  0.90121  Biso   1.000  C  0.7026345768003519
  C623     1.0000 0.34232  0.55360  0.91456  Biso   1.000  C  -0.0122857281426626
  C624     1.0000 0.31896  0.56227  0.90624  Biso   1.000  C  -0.1038683047155851
  H232     1.0000 0.31008  0.55336  0.89038  Biso   1.000  H  0.1353432987476172
  O321     1.0000 0.41011  0.62477  0.97580  Biso   1.000  O  -0.4221729374170397
  O322     1.0000 0.38099  0.65393  0.97590  Biso   1.000  O  -0.4221729374170397
  C625     1.0000 0.40130  0.64511  0.96732  Biso   1.000  C  0.7126431549636361
  C626     1.0000 0.41450  0.65830  0.94687  Biso   1.000  C  -0.0122636898865909
  C627     1.0000 0.40590  0.68154  0.93823  Biso   1.000  C  -0.1048485581128599
  H233     1.0000 0.38995  0.69021  0.94718  Biso   1.000  H  0.1308941163513784
  O323     1.0000 0.59080  0.37612  0.97561  Biso   1.000  O  -0.4221729374170397
  O324     1.0000 0.61995  0.34698  0.97553  Biso   1.000  O  -0.4221729374170397
  C628     1.0000 0.59958  0.35578  0.96706  Biso   1.000  C  0.7026345768003519
  C629     1.0000 0.58620  0.34256  0.94672  Biso   1.000  C  -0.0118976856513891
  C630     1.0000 0.59475  0.31932  0.93801  Biso   1.000  C  -0.1048485581128599
  H234     1.0000 0.61083  0.31070  0.94678  Biso   1.000  H  0.1353432987476172
  O325     1.0000 0.58967  0.52465  0.87531  Biso   1.000  O  -0.4221729374170397
  O326     1.0000 0.61867  0.52465  0.84603  Biso   1.000  O  -0.4221729374170397
  C631     1.0000 0.59841  0.53322  0.85497  Biso   1.000  C  0.7131480130737611
  C632     1.0000 0.58522  0.55377  0.84193  Biso   1.000  C  -0.0129528234078125
  C633     1.0000 0.59379  0.56248  0.81871  Biso   1.000  C  -0.1048485581128599
  H235     1.0000 0.60967  0.55349  0.80995  Biso   1.000  H  0.1351617084746938
  O327     1.0000 0.40995  0.47572  0.87584  Biso   1.000  O  -0.4221729374170397
  O328     1.0000 0.38093  0.47576  0.84659  Biso   1.000  O  -0.4222209511976119
  C634     1.0000 0.40119  0.46715  0.85552  Biso   1.000  C  0.7004201692634957
  C635     1.0000 0.41437  0.44654  0.84253  Biso   1.000  C  -0.0120855947804846
  C636     1.0000 0.40584  0.43778  0.81932  Biso   1.000  C  -0.1048485581128599
  H236     1.0000 0.38997  0.44675  0.81052  Biso   1.000  H  0.1353432987476172
  O329     1.0000 0.52450  0.62481  0.90985  Biso   1.000  O  -0.4221729374170397
  O330     1.0000 0.52455  0.65410  0.88086  Biso   1.000  O  -0.4222209511976119
  C637     1.0000 0.53309  0.64514  0.90114  Biso   1.000  C  0.7004201692634957
  C638     1.0000 0.55364  0.65809  0.91445  Biso   1.000  C  -0.0118976856513891
  C639     1.0000 0.56237  0.68144  0.90619  Biso   1.000  C  -0.1038683047155851
  H237     1.0000 0.55344  0.69041  0.89039  Biso   1.000  H  0.1353432987476172
  O331     1.0000 0.47537  0.37519  0.91022  Biso   1.000  O  -0.4221729374170397
  O332     1.0000 0.47536  0.34593  0.88120  Biso   1.000  O  -0.4221729374170397
  C640     1.0000 0.46680  0.35485  0.90148  Biso   1.000  C  0.7004201692634957
  C641     1.0000 0.44621  0.34188  0.91470  Biso   1.000  C  -0.0118976856513891
  C642     1.0000 0.43753  0.31852  0.90638  Biso   1.000  C  -0.1038683047155851
  H238     1.0000 0.44657  0.30954  0.89065  Biso   1.000  H  0.1353432987476172
  O333     1.0000 0.62458  0.58991  0.97592  Biso   1.000  O  -0.4221729374170397
  O334     1.0000 0.65389  0.61888  0.97590  Biso   1.000  O  -0.4222209511976119
  C643     1.0000 0.64497  0.59858  0.96739  Biso   1.000  C  0.7026345768003519
  C644     1.0000 0.65797  0.58526  0.94686  Biso   1.000  C  -0.0118841025737058
  C645     1.0000 0.68134  0.59353  0.93818  Biso   1.000  C  -0.1041901522862805
  H239     1.0000 0.69033  0.60926  0.94720  Biso   1.000  H  0.1308941163513784
  O335     1.0000 0.37482  0.41011  0.97572  Biso   1.000  O  -0.4221729374170397
  O336     1.0000 0.34551  0.38114  0.97568  Biso   1.000  O  -0.4222209511976119
  C646     1.0000 0.35443  0.40146  0.96720  Biso   1.000  C  0.7004201692634957
  C647     1.0000 0.34142  0.41485  0.94674  Biso   1.000  C  -0.0120456857668748
  C648     1.0000 0.31806  0.40661  0.93802  Biso   1.000  C  -0.1041901522862805
  H240     1.0000 0.30909  0.39081  0.94693  Biso   1.000  H  0.1254773405370029
  Cu73     1.0000 0.49981  0.39524  0.89610  Biso   1.000  Cu  1.0406494230648207
  Cu74     1.0000 0.49983  0.36020  0.86118  Biso   1.000  Cu  1.0413393352340830
  Cu75     1.0000 0.49999  0.60501  0.89565  Biso   1.000  Cu  1.0406494230648207
  Cu76     1.0000 0.49997  0.64006  0.86074  Biso   1.000  Cu  1.0413393352340830
  Cu77     1.0000 0.39568  0.50018  0.89570  Biso   1.000  Cu  1.0406494230648207
  Cu78     1.0000 0.36077  0.50026  0.86066  Biso   1.000  Cu  1.0406494230648207
  Cu79     1.0000 0.60386  0.50018  0.89527  Biso   1.000  Cu  1.0406494230648207
  Cu80     1.0000 0.63874  0.50021  0.86018  Biso   1.000  Cu  1.0406494230648207
  C649     1.0000 0.43489  0.43472  0.85387  Biso   1.000  C  -0.1034383429738552
  H241     1.0000 0.44129  0.44110  0.87199  Biso   1.000  H  0.1353545344044522
  C650     1.0000 0.41752  0.41747  0.80743  Biso   1.000  C  0.0232540050304117
  C651     1.0000 0.56469  0.56559  0.85321  Biso   1.000  C  -0.1048485581128599
  H242     1.0000 0.55828  0.55924  0.87133  Biso   1.000  H  0.1351617084746938
  C652     1.0000 0.58215  0.58278  0.80678  Biso   1.000  C  0.0232540050304117
  C653     1.0000 0.35303  0.43521  0.93490  Biso   1.000  C  -0.1048485581128599
  H243     1.0000 0.37116  0.44150  0.94134  Biso   1.000  H  0.1351617084746938
  C654     1.0000 0.30656  0.41817  0.91741  Biso   1.000  C  0.0232540050304117
  C655     1.0000 0.64634  0.56499  0.93488  Biso   1.000  C  -0.1048485581128599
  H244     1.0000 0.62820  0.55868  0.94129  Biso   1.000  H  0.1353545344044522
  C656     1.0000 0.69282  0.58211  0.91749  Biso   1.000  C  0.0228992450093916
  C657     1.0000 0.43422  0.35347  0.93497  Biso   1.000  C  -0.1048485581128599
  H245     1.0000 0.44064  0.37159  0.94132  Biso   1.000  H  0.1353432987476172
  C658     1.0000 0.41683  0.30702  0.91778  Biso   1.000  C  0.0232394493051358
  C659     1.0000 0.56547  0.64650  0.93482  Biso   1.000  C  -0.1048485581128599
  H246     1.0000 0.55901  0.62839  0.94114  Biso   1.000  H  0.1308941163513784
  C660     1.0000 0.58297  0.69296  0.91774  Biso   1.000  C  0.0232572624480647
  C661     1.0000 0.43477  0.56562  0.85371  Biso   1.000  C  -0.1048485581128599
  H247     1.0000 0.44114  0.55922  0.87183  Biso   1.000  H  0.1353432987476172
  C662     1.0000 0.41752  0.58295  0.80726  Biso   1.000  C  0.0232394493051358
  C663     1.0000 0.56472  0.43472  0.85361  Biso   1.000  C  -0.1048485581128599
  H248     1.0000 0.55840  0.44115  0.87173  Biso   1.000  H  0.1308941163513784
  C664     1.0000 0.58186  0.41728  0.80714  Biso   1.000  C  0.0232394493051358
  C665     1.0000 0.56539  0.35365  0.93517  Biso   1.000  C  -0.1048485581128599
  H249     1.0000 0.55898  0.37178  0.94149  Biso   1.000  H  0.1351617084746938
  C666     1.0000 0.58278  0.30717  0.91803  Biso   1.000  C  0.0228992450093916
  C667     1.0000 0.43512  0.64714  0.93510  Biso   1.000  C  -0.1048485581128599
  H250     1.0000 0.44155  0.62900  0.94139  Biso   1.000  H  0.1353545344044522
  C668     1.0000 0.41764  0.69361  0.91806  Biso   1.000  C  0.0232572624480647
  C669     1.0000 0.35379  0.56542  0.93501  Biso   1.000  C  -0.1048485581128599
  H251     1.0000 0.37191  0.55900  0.94136  Biso   1.000  H  0.1353432987476172
  C670     1.0000 0.30733  0.58280  0.91780  Biso   1.000  C  0.0232394493051358
  C671     1.0000 0.64656  0.43529  0.93452  Biso   1.000  C  -0.1048485581128599
  H252     1.0000 0.62843  0.44157  0.94097  Biso   1.000  H  0.1351617084746938
  C672     1.0000 0.69305  0.41827  0.91704  Biso   1.000  C  0.0232394493051358
  O337     1.0000 0.52446  0.40951  0.12399  Biso   1.000  O  -0.4221729374170397
  O338     1.0000 0.52444  0.38030  0.15305  Biso   1.000  O  -0.4221729374170397
  C673     1.0000 0.53299  0.40064  0.14429  Biso   1.000  C  0.7004201692634957
  C674     1.0000 0.55343  0.41385  0.15753  Biso   1.000  C  -0.0119772664224163
  C675     1.0000 0.56206  0.40523  0.18077  Biso   1.000  C  -0.1048485581128599
  H253     1.0000 0.55316  0.38922  0.18939  Biso   1.000  H  0.1353432987476172
  O339     1.0000 0.47590  0.59010  0.12485  Biso   1.000  O  -0.4221729374170397
  O340     1.0000 0.47589  0.61917  0.15407  Biso   1.000  O  -0.4222209511976119
  C676     1.0000 0.46739  0.59883  0.14522  Biso   1.000  C  0.7004201692634957
  C677     1.0000 0.44692  0.58553  0.15829  Biso   1.000  C  -0.0118976856513891
  C678     1.0000 0.43825  0.59386  0.18164  Biso   1.000  C  -0.1038683047155851
  H254     1.0000 0.44719  0.60968  0.19055  Biso   1.000  H  0.1309278840303973
  O341     1.0000 0.37561  0.52427  0.09032  Biso   1.000  O  -0.4221729374170397
  O342     1.0000 0.34642  0.52435  0.11942  Biso   1.000  O  -0.4222209511976119
  C679     1.0000 0.35526  0.53282  0.09906  Biso   1.000  C  0.7026345768003519
  C680     1.0000 0.34221  0.55329  0.08571  Biso   1.000  C  -0.0122848725318986
  C681     1.0000 0.31883  0.56197  0.09398  Biso   1.000  C  -0.1038683047155851
  H255     1.0000 0.30989  0.55303  0.10979  Biso   1.000  H  0.1353432987476172
  O343     1.0000 0.62450  0.47561  0.09077  Biso   1.000  O  -0.4221729374170397
  O344     1.0000 0.65365  0.47552  0.11990  Biso   1.000  O  -0.4221729374170397
  C682     1.0000 0.64483  0.46706  0.09954  Biso   1.000  C  0.7131480130737611
  C683     1.0000 0.65802  0.44671  0.08618  Biso   1.000  C  -0.0121580415835852
  C684     1.0000 0.68126  0.43800  0.09471  Biso   1.000  C  -0.1048485581128599
  H256     1.0000 0.68990  0.44680  0.11076  Biso   1.000  H  0.1351617084746938
  O345     1.0000 0.59083  0.37612  0.02435  Biso   1.000  O  -0.4221729374170397
  O346     1.0000 0.61996  0.34698  0.02434  Biso   1.000  O  -0.4222209511976119
  C685     1.0000 0.59961  0.35578  0.03285  Biso   1.000  C  0.6988662603979264
  C686     1.0000 0.58625  0.34256  0.05320  Biso   1.000  C  -0.0116768544177920
  C687     1.0000 0.59478  0.31932  0.06192  Biso   1.000  C  -0.1034383429738552
  H257     1.0000 0.61086  0.31068  0.05316  Biso   1.000  H  0.1353545344044522
  O347     1.0000 0.41018  0.62474  0.02456  Biso   1.000  O  -0.4221729374170397
  O348     1.0000 0.38109  0.65393  0.02466  Biso   1.000  O  -0.4221729374170397
  C688     1.0000 0.40144  0.64508  0.03312  Biso   1.000  C  0.6988662603979264
  C689     1.0000 0.41475  0.65813  0.05360  Biso   1.000  C  -0.0118976856513891
  C690     1.0000 0.40642  0.68149  0.06227  Biso   1.000  C  -0.1038683047155851
  H258     1.0000 0.39061  0.69040  0.05331  Biso   1.000  H  0.1308941163513784
  O349     1.0000 0.40998  0.47569  0.12460  Biso   1.000  O  -0.4221729374170397
  O350     1.0000 0.38101  0.47567  0.15391  Biso   1.000  O  -0.4222209511976119
  C691     1.0000 0.40132  0.46717  0.14499  Biso   1.000  C  0.7026345768003519
  C692     1.0000 0.41469  0.44668  0.15800  Biso   1.000  C  -0.0118841025737058
  C693     1.0000 0.40645  0.43798  0.18138  Biso   1.000  C  -0.1038683047155851
  H259     1.0000 0.39066  0.44692  0.19035  Biso   1.000  H  0.1351617084746938
  O351     1.0000 0.59031  0.52429  0.12511  Biso   1.000  O  -0.4221729374170397
  O352     1.0000 0.61932  0.52425  0.15438  Biso   1.000  O  -0.4221729374170397
  C694     1.0000 0.59902  0.53277  0.14550  Biso   1.000  C  0.7126431549636361
  C695     1.0000 0.58570  0.55322  0.15857  Biso   1.000  C  -0.0116768544177920
  C696     1.0000 0.59403  0.56189  0.18193  Biso   1.000  C  -0.1038683047155851
  H260     1.0000 0.60985  0.55295  0.19084  Biso   1.000  H  0.1309278840303973
  O353     1.0000 0.47550  0.37558  0.08966  Biso   1.000  O  -0.4221729374170397
  O354     1.0000 0.47550  0.34627  0.11864  Biso   1.000  O  -0.4221729374170397
  C697     1.0000 0.46691  0.35524  0.09840  Biso   1.000  C  0.7004201692634957
  C698     1.0000 0.44631  0.34224  0.08523  Biso   1.000  C  -0.0121580415835852
  C699     1.0000 0.43759  0.31902  0.09380  Biso   1.000  C  -0.1048485581128599
  H261     1.0000 0.44661  0.31024  0.10965  Biso   1.000  H  0.1351617084746938
  O355     1.0000 0.52457  0.62427  0.09046  Biso   1.000  O  -0.4221729374170397
  O356     1.0000 0.52461  0.65351  0.11951  Biso   1.000  O  -0.4222209511976119
  C700     1.0000 0.53312  0.64462  0.09919  Biso   1.000  C  0.7159076442791230
  C701     1.0000 0.55356  0.65772  0.08586  Biso   1.000  C  -0.0120855947804846
  C702     1.0000 0.56230  0.68096  0.09437  Biso   1.000  C  -0.1048485581128599
  H262     1.0000 0.55344  0.68969  0.11033  Biso   1.000  H  0.1224915584291129
  O357     1.0000 0.37494  0.40994  0.02446  Biso   1.000  O  -0.4221729374170397
  O358     1.0000 0.34564  0.38096  0.02451  Biso   1.000  O  -0.4222209511976119
  C703     1.0000 0.35459  0.40124  0.03304  Biso   1.000  C  0.7078182762814196
  C704     1.0000 0.34163  0.41453  0.05358  Biso   1.000  C  -0.0121502360574332
  C705     1.0000 0.31827  0.40626  0.06228  Biso   1.000  C  -0.1038683047155851
  H263     1.0000 0.30929  0.39049  0.05332  Biso   1.000  H  0.1308941163513784
  O359     1.0000 0.62432  0.59007  0.02474  Biso   1.000  O  -0.4221729374170397
  O360     1.0000 0.65358  0.61909  0.02475  Biso   1.000  O  -0.4221729374170397
  C706     1.0000 0.64464  0.59884  0.03334  Biso   1.000  C  0.6988662603979264
  C707     1.0000 0.65766  0.58566  0.05392  Biso   1.000  C  -0.0120855947804846
  C708     1.0000 0.68087  0.59425  0.06265  Biso   1.000  C  -0.1048485581128599
  H264     1.0000 0.68961  0.61015  0.05368  Biso   1.000  H  0.1308941163513784
  O361     1.0000 0.52464  0.59020  0.12482  Biso   1.000  O  -0.4221729374170397
  O362     1.0000 0.52467  0.61931  0.15400  Biso   1.000  O  -0.4221729374170397
  C709     1.0000 0.53319  0.59899  0.14514  Biso   1.000  C  0.7126431549636361
  C710     1.0000 0.55364  0.58574  0.15827  Biso   1.000  C  -0.0129528234078125
  C711     1.0000 0.56236  0.59430  0.18149  Biso   1.000  C  -0.1048485581128599
  H265     1.0000 0.55349  0.61028  0.19019  Biso   1.000  H  0.1351617084746938
  O363     1.0000 0.47568  0.40967  0.12400  Biso   1.000  O  -0.4221729374170397
  O364     1.0000 0.47565  0.38048  0.15309  Biso   1.000  O  -0.4221729374170397
  C712     1.0000 0.46715  0.40085  0.14433  Biso   1.000  C  0.7159076442791230
  C713     1.0000 0.44675  0.41413  0.15754  Biso   1.000  C  -0.0120855947804846
  C714     1.0000 0.43810  0.40555  0.18079  Biso   1.000  C  -0.1048485581128599
  H266     1.0000 0.44699  0.38956  0.18944  Biso   1.000  H  0.1309278840303973
  O365     1.0000 0.62446  0.52433  0.09079  Biso   1.000  O  -0.4221729374170397
  O366     1.0000 0.65366  0.52434  0.11988  Biso   1.000  O  -0.4222209511976119
  C715     1.0000 0.64482  0.53286  0.09954  Biso   1.000  C  0.6950576040147314
  C716     1.0000 0.65789  0.55332  0.08620  Biso   1.000  C  -0.0123205700094703
  C717     1.0000 0.68124  0.56204  0.09452  Biso   1.000  C  -0.1038683047155851
  H267     1.0000 0.69012  0.55318  0.11040  Biso   1.000  H  0.1309278840303973
  O367     1.0000 0.37560  0.47552  0.09054  Biso   1.000  O  -0.4221729374170397
  O368     1.0000 0.34647  0.47554  0.11970  Biso   1.000  O  -0.4221729374170397
  C718     1.0000 0.35528  0.46698  0.09938  Biso   1.000  C  0.6988662603979264
  C719     1.0000 0.34210  0.44654  0.08615  Biso   1.000  C  -0.0121580415835852
  C720     1.0000 0.31886  0.43787  0.09475  Biso   1.000  C  -0.1048485581128599
  H268     1.0000 0.31021  0.44675  0.11075  Biso   1.000  H  0.1308941163513784
  O369     1.0000 0.59024  0.62444  0.02440  Biso   1.000  O  -0.4221729374170397
  O370     1.0000 0.61936  0.65361  0.02443  Biso   1.000  O  -0.4222209511976119
  C721     1.0000 0.59898  0.64481  0.03290  Biso   1.000  C  0.6950576040147314
  C722     1.0000 0.58564  0.65795  0.05332  Biso   1.000  C  -0.0122848725318986
  C723     1.0000 0.59398  0.68132  0.06196  Biso   1.000  C  -0.1038683047155851
  H269     1.0000 0.60981  0.69019  0.05300  Biso   1.000  H  0.1254773405370029
  O371     1.0000 0.40914  0.37567  0.02421  Biso   1.000  O  -0.4221729374170397
  O372     1.0000 0.38002  0.34649  0.02430  Biso   1.000  O  -0.4222209511976119
  C724     1.0000 0.40042  0.35529  0.03272  Biso   1.000  C  0.6950576040147314
  C725     1.0000 0.41387  0.34213  0.05305  Biso   1.000  C  -0.0122848725318986
  C726     1.0000 0.40556  0.31878  0.06176  Biso   1.000  C  -0.1038683047155851
  H270     1.0000 0.38961  0.30994  0.05297  Biso   1.000  H  0.1353432987476172
  O373     1.0000 0.59015  0.47556  0.12483  Biso   1.000  O  -0.4221729374170397
  O374     1.0000 0.61913  0.47544  0.15413  Biso   1.000  O  -0.4222209511976119
  C727     1.0000 0.59882  0.46695  0.14518  Biso   1.000  C  0.7181012984560450
  C728     1.0000 0.58547  0.44641  0.15810  Biso   1.000  C  -0.0118976856513891
  C729     1.0000 0.59368  0.43768  0.18146  Biso   1.000  C  -0.1034383429738552
  H271     1.0000 0.60945  0.44662  0.19047  Biso   1.000  H  0.1353432987476172
  O375     1.0000 0.40984  0.52445  0.12454  Biso   1.000  O  -0.4221729374170397
  O376     1.0000 0.38080  0.52449  0.15379  Biso   1.000  O  -0.4221729374170397
  C730     1.0000 0.40110  0.53302  0.14488  Biso   1.000  C  0.6988662603979264
  C731     1.0000 0.41438  0.55348  0.15798  Biso   1.000  C  -0.0122636898865909
  C732     1.0000 0.40582  0.56221  0.18120  Biso   1.000  C  -0.1048485581128599
  H272     1.0000 0.38984  0.55335  0.18990  Biso   1.000  H  0.1254773405370029
  O377     1.0000 0.47579  0.62435  0.09064  Biso   1.000  O  -0.4221729374170397
  O378     1.0000 0.47579  0.65356  0.11972  Biso   1.000  O  -0.4221729374170397
  C733     1.0000 0.46725  0.64469  0.09942  Biso   1.000  C  0.7004201692634957
  C734     1.0000 0.44679  0.65782  0.08615  Biso   1.000  C  -0.0120855947804846
  C735     1.0000 0.43806  0.68104  0.09471  Biso   1.000  C  -0.1048485581128599
  H273     1.0000 0.44692  0.68974  0.11069  Biso   1.000  H  0.1309278840303973
  O379     1.0000 0.52433  0.37543  0.08958  Biso   1.000  O  -0.4221729374170397
  O380     1.0000 0.52432  0.34609  0.11853  Biso   1.000  O  -0.4221729374170397
  C736     1.0000 0.53287  0.35504  0.09826  Biso   1.000  C  0.7026345768003519
  C737     1.0000 0.55343  0.34206  0.08499  Biso   1.000  C  -0.0120456857668748
  C738     1.0000 0.56208  0.31869  0.09329  Biso   1.000  C  -0.1038683047155851
  H274     1.0000 0.55301  0.30971  0.10900  Biso   1.000  H  0.1351617084746938
  O381     1.0000 0.62509  0.41032  0.02437  Biso   1.000  O  -0.4221729374170397
  O382     1.0000 0.65438  0.38133  0.02432  Biso   1.000  O  -0.4221729374170397
  C739     1.0000 0.64547  0.40161  0.03289  Biso   1.000  C  0.7004201692634957
  C740     1.0000 0.65847  0.41485  0.05344  Biso   1.000  C  -0.0122633845473154
  C741     1.0000 0.68185  0.40655  0.06210  Biso   1.000  C  -0.1038683047155851
  H275     1.0000 0.69082  0.39081  0.05306  Biso   1.000  H  0.1353545344044522
  O383     1.0000 0.37604  0.59039  0.02461  Biso   1.000  O  -0.4221729374170397
  O384     1.0000 0.34682  0.61945  0.02469  Biso   1.000  O  -0.4221729374170397
  C742     1.0000 0.35571  0.59913  0.03318  Biso   1.000  C  0.6988662603979264
  C743     1.0000 0.34258  0.58582  0.05362  Biso   1.000  C  -0.0120855947804846
  C744     1.0000 0.31933  0.59436  0.06230  Biso   1.000  C  -0.1048485581128599
  H276     1.0000 0.31064  0.61033  0.05340  Biso   1.000  H  0.1353432987476172
  Cu81     1.0000 0.50001  0.39546  0.10389  Biso   1.000  Cu  1.0406494230648207
  Cu82     1.0000 0.49998  0.36034  0.13873  Biso   1.000  Cu  1.0406494230648207
  Cu83     1.0000 0.50022  0.60431  0.10478  Biso   1.000  Cu  1.0406494230648207
  Cu84     1.0000 0.50024  0.63932  0.13974  Biso   1.000  Cu  1.0406494230648207
  Cu85     1.0000 0.39487  0.39580  0.99998  Biso   1.000  Cu  1.0406494230648207
  Cu86     1.0000 0.35981  0.36090  0.00000  Biso   1.000  Cu  1.0413393352340830
  Cu87     1.0000 0.60502  0.39617  0.99999  Biso   1.000  Cu  1.0406494230648207
  Cu88     1.0000 0.64007  0.36126  0.99992  Biso   1.000  Cu  1.0413393352340830
  Cu89     1.0000 0.39599  0.60468  0.00019  Biso   1.000  Cu  1.0406494230648207
  Cu90     1.0000 0.36096  0.63962  0.00030  Biso   1.000  Cu  1.0406494230648207
  Cu91     1.0000 0.60448  0.60425  0.00017  Biso   1.000  Cu  1.0406494230648207
  Cu92     1.0000 0.63956  0.63913  0.00018  Biso   1.000  Cu  1.0406494230648207
  Cu93     1.0000 0.39566  0.49998  0.10458  Biso   1.000  Cu  1.0406494230648207
  Cu94     1.0000 0.36075  0.50002  0.13964  Biso   1.000  Cu  1.0406494230648207
  Cu95     1.0000 0.60444  0.49997  0.10496  Biso   1.000  Cu  1.0406494230648207
  Cu96     1.0000 0.63937  0.49988  0.14001  Biso   1.000  Cu  1.0413393352340830
  C745     1.0000 0.56514  0.43456  0.14644  Biso   1.000  C  -0.1048485581128599
  H277     1.0000 0.55887  0.44102  0.12831  Biso   1.000  H  0.1351617084746938
  C746     1.0000 0.58214  0.41704  0.19292  Biso   1.000  C  0.0232394493051358
  C747     1.0000 0.43504  0.56514  0.14677  Biso   1.000  C  -0.1048485581128599
  H278     1.0000 0.44145  0.55878  0.12865  Biso   1.000  H  0.1353432987476172
  C748     1.0000 0.41764  0.58236  0.19321  Biso   1.000  C  0.0232540050304117
  C749     1.0000 0.35376  0.56517  0.06533  Biso   1.000  C  -0.1048485581128599
  H279     1.0000 0.37190  0.55877  0.05901  Biso   1.000  H  0.1353545344044522
  C750     1.0000 0.30727  0.58256  0.08243  Biso   1.000  C  0.0232394493051358
  C751     1.0000 0.64688  0.43513  0.06543  Biso   1.000  C  -0.1048485581128599
  H280     1.0000 0.62875  0.44146  0.05903  Biso   1.000  H  0.1351617084746938
  C752     1.0000 0.69336  0.41796  0.08278  Biso   1.000  C  0.0233745482449430
  C753     1.0000 0.56545  0.35368  0.06475  Biso   1.000  C  -0.1048485581128599
  H281     1.0000 0.55905  0.37181  0.05842  Biso   1.000  H  0.1351617084746938
  C754     1.0000 0.58280  0.30719  0.08192  Biso   1.000  C  0.0232394493051358
  C755     1.0000 0.43513  0.64662  0.06548  Biso   1.000  C  -0.1048485581128599
  H282     1.0000 0.44148  0.62849  0.05907  Biso   1.000  H  0.1353545344044522
  C756     1.0000 0.41792  0.69307  0.08287  Biso   1.000  C  0.0232394493051358
  C757     1.0000 0.43504  0.43481  0.14641  Biso   1.000  C  -0.1048485581128599
  H283     1.0000 0.44133  0.44124  0.12827  Biso   1.000  H  0.1353545344044522
  C758     1.0000 0.41799  0.41737  0.19289  Biso   1.000  C  0.0232394493051358
  C759     1.0000 0.56531  0.56509  0.14706  Biso   1.000  C  -0.1048485581128599
  H284     1.0000 0.55896  0.55867  0.12894  Biso   1.000  H  0.1353432987476172
  C760     1.0000 0.58252  0.58248  0.19351  Biso   1.000  C  0.0232572624480647
  C761     1.0000 0.43444  0.35355  0.06474  Biso   1.000  C  -0.1048485581128599
  H285     1.0000 0.44079  0.37167  0.05832  Biso   1.000  H  0.1353432987476172
  C762     1.0000 0.41727  0.30711  0.08219  Biso   1.000  C  0.0232572624480647
  C763     1.0000 0.56523  0.64647  0.06522  Biso   1.000  C  -0.1048485581128599
  H286     1.0000 0.55888  0.62834  0.05885  Biso   1.000  H  0.1309278840303973
  C764     1.0000 0.58247  0.69294  0.08253  Biso   1.000  C  0.0232394493051358
  C765     1.0000 0.35323  0.43486  0.06546  Biso   1.000  C  -0.1048485581128599
  H287     1.0000 0.37136  0.44117  0.05902  Biso   1.000  H  0.1353545344044522
  C766     1.0000 0.30676  0.41778  0.08292  Biso   1.000  C  0.0232394493051358
  C767     1.0000 0.64642  0.56508  0.06571  Biso   1.000  C  -0.1048485581128599
  H288     1.0000 0.62831  0.55864  0.05934  Biso   1.000  H  0.1353545344044522
  C768     1.0000 0.69285  0.58256  0.08289  Biso   1.000  C  0.0232572624480647
  C769     1.0000 0.12011  0.12101  0.28360  Biso   1.000  C  0.1546024787288588
  N33      1.0000 0.13422  0.10657  0.29895  Biso   1.000  N  -0.2272241612084026
  N34      1.0000 0.14377  0.11598  0.31993  Biso   1.000  N  -0.1523748189823301
  C770     1.0000 0.13971  0.14023  0.32635  Biso   1.000  C  0.3166777917610792
  N35      1.0000 0.12553  0.15460  0.31093  Biso   1.000  N  -0.1570259460634034
  N36      1.0000 0.11588  0.14518  0.29002  Biso   1.000  N  -0.2272241612084026
  C771     1.0000 0.10997  0.11086  0.26020  Biso   1.000  C  0.1546024787288588
  N37      1.0000 0.09404  0.12462  0.24606  Biso   1.000  N  -0.2272241612084026
  N38      1.0000 0.08520  0.11565  0.22459  Biso   1.000  N  -0.2303048990349718
  C772     1.0000 0.09201  0.09262  0.21634  Biso   1.000  C  0.2505797930276468
  N39      1.0000 0.10795  0.07887  0.23055  Biso   1.000  N  -0.2249774230986708
  N40      1.0000 0.11672  0.08779  0.25209  Biso   1.000  N  -0.2298671013259737
  C773     1.0000 0.12109  0.61994  0.78426  Biso   1.000  C  0.1544738041701660
  N41      1.0000 0.14531  0.61580  0.79052  Biso   1.000  N  -0.2277676151081365
  N42      1.0000 0.15485  0.62553  0.81134  Biso   1.000  N  -0.1570259460634034
  C774     1.0000 0.14055  0.63970  0.82683  Biso   1.000  C  0.3166777917610792
  N43      1.0000 0.11623  0.64366  0.82058  Biso   1.000  N  -0.1523748189823301
  N44      1.0000 0.10671  0.63404  0.79968  Biso   1.000  N  -0.2272241612084026
  C775     1.0000 0.11081  0.60974  0.76095  Biso   1.000  C  0.1544342359644664
  N45      1.0000 0.08772  0.61650  0.75291  Biso   1.000  N  -0.2298671013259737
  N46      1.0000 0.07870  0.60769  0.73143  Biso   1.000  N  -0.2248888988458065
  C776     1.0000 0.09238  0.59169  0.71721  Biso   1.000  C  0.2476361797552317
  N47      1.0000 0.11542  0.58486  0.72540  Biso   1.000  N  -0.2298671013259737
  N48      1.0000 0.12449  0.59375  0.74680  Biso   1.000  N  -0.2272241612084026
  C777     1.0000 0.61979  0.12107  0.78424  Biso   1.000  C  0.1472405596172113
  N49      1.0000 0.63377  0.10663  0.79970  Biso   1.000  N  -0.2272241612084026
  N50      1.0000 0.64339  0.11611  0.82062  Biso   1.000  N  -0.1523748189823301
  C778     1.0000 0.63952  0.14044  0.82685  Biso   1.000  C  0.3166777917610792
  N51      1.0000 0.62545  0.15481  0.81134  Biso   1.000  N  -0.1566877427591413
  N52      1.0000 0.61573  0.14530  0.79049  Biso   1.000  N  -0.2272241612084026
  C779     1.0000 0.60963  0.11083  0.76089  Biso   1.000  C  0.1544342359644664
  N53      1.0000 0.59384  0.12461  0.74663  Biso   1.000  N  -0.2277676151081365
  N54      1.0000 0.58500  0.11558  0.72519  Biso   1.000  N  -0.2303048990349718
  C780     1.0000 0.59168  0.09245  0.71709  Biso   1.000  C  0.2476361797552317
  N55      1.0000 0.60748  0.07868  0.73143  Biso   1.000  N  -0.2297660492280343
  N56      1.0000 0.61624  0.08766  0.75294  Biso   1.000  N  -0.2298671013259737
  C781     1.0000 0.62044  0.62090  0.28462  Biso   1.000  C  0.1472405596172113
  N57      1.0000 0.63445  0.60650  0.30009  Biso   1.000  N  -0.2272241612084026
  N58      1.0000 0.64408  0.61604  0.32098  Biso   1.000  N  -0.1523748189823301
  C782     1.0000 0.64020  0.64038  0.32716  Biso   1.000  C  0.3166777917610792
  N59      1.0000 0.62613  0.65471  0.31161  Biso   1.000  N  -0.1570259460634034
  N60      1.0000 0.61639  0.64515  0.29080  Biso   1.000  N  -0.2277676151081365
  C783     1.0000 0.61019  0.61062  0.26133  Biso   1.000  C  0.1472405596172113
  N61      1.0000 0.59429  0.62437  0.24716  Biso   1.000  N  -0.2277676151081365
  N62      1.0000 0.58534  0.61531  0.22578  Biso   1.000  N  -0.2303048990349718
  C784     1.0000 0.59202  0.59220  0.21764  Biso   1.000  C  0.2476361797552317
  N63      1.0000 0.60793  0.57846  0.23190  Biso   1.000  N  -0.2248888988458065
  N64      1.0000 0.61680  0.58747  0.25336  Biso   1.000  N  -0.2298671013259737
  C785     1.0000 0.87909  0.87992  0.28448  Biso   1.000  C  0.1544738041701660
  N65      1.0000 0.85484  0.88396  0.29069  Biso   1.000  N  -0.2272241612084026
  N66      1.0000 0.84529  0.87416  0.31148  Biso   1.000  N  -0.1570259460634034
  C786     1.0000 0.85961  0.86002  0.32697  Biso   1.000  C  0.3166777917610792
  N67      1.0000 0.88395  0.85615  0.32077  Biso   1.000  N  -0.1523748189823301
  N68      1.0000 0.89349  0.86585  0.29991  Biso   1.000  N  -0.2298671013259737
  C787     1.0000 0.88937  0.89022  0.26122  Biso   1.000  C  0.1544738041701660
  N69      1.0000 0.91252  0.88360  0.25323  Biso   1.000  N  -0.2298671013259737
  N70      1.0000 0.92154  0.89250  0.23179  Biso   1.000  N  -0.2248888988458065
  C788     1.0000 0.90782  0.90846  0.21756  Biso   1.000  C  0.2476361797552317
  N71      1.0000 0.88471  0.91514  0.22571  Biso   1.000  N  -0.2303048990349718
  N72      1.0000 0.87564  0.90616  0.24707  Biso   1.000  N  -0.2277676151081365
  C789     1.0000 0.88020  0.37908  0.78410  Biso   1.000  C  0.1544738041701660
  N73      1.0000 0.86613  0.39358  0.79943  Biso   1.000  N  -0.2272241612084026
  N74      1.0000 0.85641  0.38417  0.82034  Biso   1.000  N  -0.1523748189823301
  C790     1.0000 0.86025  0.35987  0.82669  Biso   1.000  C  0.3166777917610792
  N75      1.0000 0.87440  0.34544  0.81129  Biso   1.000  N  -0.1555071729735532
  N76      1.0000 0.88422  0.35487  0.79045  Biso   1.000  N  -0.2272241612084026
  C791     1.0000 0.89049  0.38924  0.76077  Biso   1.000  C  0.1544342359644664
  N77      1.0000 0.90632  0.37541  0.74660  Biso   1.000  N  -0.2277676151081365
  N78      1.0000 0.91526  0.38438  0.72517  Biso   1.000  N  -0.2303048990349718
  C792     1.0000 0.90864  0.40749  0.71699  Biso   1.000  C  0.2476361797552317
  N79      1.0000 0.89280  0.42131  0.73124  Biso   1.000  N  -0.2290003791244508
  N80      1.0000 0.88394  0.41240  0.75274  Biso   1.000  N  -0.2298671013259737
  C793     1.0000 0.37979  0.87906  0.78450  Biso   1.000  C  0.1472405596172113
  N81      1.0000 0.38381  0.85484  0.79084  Biso   1.000  N  -0.2272241612084026
  N82      1.0000 0.37396  0.84540  0.81166  Biso   1.000  N  -0.1566877427591413
  C794     1.0000 0.35981  0.85982  0.82706  Biso   1.000  C  0.3166777917610792
  N83      1.0000 0.35595  0.88412  0.82072  Biso   1.000  N  -0.1523748189823301
  N84      1.0000 0.36569  0.89354  0.79982  Biso   1.000  N  -0.2298671013259737
  C795     1.0000 0.39016  0.88922  0.76122  Biso   1.000  C  0.1544738041701660
  N85      1.0000 0.38366  0.91238  0.75317  Biso   1.000  N  -0.2298671013259737
  N86      1.0000 0.39261  0.92130  0.73171  Biso   1.000  N  -0.2249774230986708
  C796     1.0000 0.40849  0.90746  0.71751  Biso   1.000  C  0.2476361797552317
  N87      1.0000 0.41508  0.88435  0.72572  Biso   1.000  N  -0.2303048990349718
  N88      1.0000 0.40605  0.87538  0.74711  Biso   1.000  N  -0.2272241612084026
  C797     1.0000 0.38036  0.37897  0.28417  Biso   1.000  C  0.1544342359644664
  N89      1.0000 0.36624  0.39335  0.29956  Biso   1.000  N  -0.2272241612084026
  N90      1.0000 0.35660  0.38384  0.32045  Biso   1.000  N  -0.1524633432351943
  C798     1.0000 0.36057  0.35954  0.32673  Biso   1.000  C  0.3166777917610792
  N91      1.0000 0.37478  0.34523  0.31128  Biso   1.000  N  -0.1570259460634034
  N92      1.0000 0.38452  0.35476  0.29046  Biso   1.000  N  -0.2277676151081365
  C799     1.0000 0.39056  0.38923  0.26084  Biso   1.000  C  0.1544342359644664
  N93      1.0000 0.40649  0.37552  0.24666  Biso   1.000  N  -0.2277676151081365
  N94      1.0000 0.41536  0.38457  0.22524  Biso   1.000  N  -0.2303048990349718
  C800     1.0000 0.40858  0.40764  0.21707  Biso   1.000  C  0.2505797930276468
  N95      1.0000 0.39264  0.42135  0.23134  Biso   1.000  N  -0.2248888988458065
  N96      1.0000 0.38385  0.41234  0.25283  Biso   1.000  N  -0.2298671013259737
  C801     1.0000 0.88020  0.12099  0.71577  Biso   1.000  C  0.1544738041701660
  N97      1.0000 0.86620  0.10649  0.70038  Biso   1.000  N  -0.2272241612084026
  N98      1.0000 0.85654  0.11591  0.67945  Biso   1.000  N  -0.1523748189823301
  C802     1.0000 0.86037  0.14023  0.67314  Biso   1.000  C  0.3166777917610792
  N99      1.0000 0.87445  0.15466  0.68859  Biso   1.000  N  -0.1566877427591413
  N100     1.0000 0.88421  0.14522  0.70945  Biso   1.000  N  -0.2272241612084026
  C803     1.0000 0.89041  0.11084  0.73913  Biso   1.000  C  0.1544738041701660
  N101     1.0000 0.90619  0.12468  0.75334  Biso   1.000  N  -0.2277676151081365
  N102     1.0000 0.91507  0.11572  0.77480  Biso   1.000  N  -0.2300151738477859
  C804     1.0000 0.90842  0.09261  0.78297  Biso   1.000  C  0.2476361797552317
  N103     1.0000 0.89263  0.07877  0.76867  Biso   1.000  N  -0.2290003791244508
  N104     1.0000 0.88384  0.08768  0.74715  Biso   1.000  N  -0.2298671013259737
  C805     1.0000 0.87928  0.62025  0.21539  Biso   1.000  C  0.1472405596172113
  N105     1.0000 0.89367  0.63429  0.19994  Biso   1.000  N  -0.2272241612084026
  N106     1.0000 0.88411  0.64399  0.17909  Biso   1.000  N  -0.1523748189823301
  C806     1.0000 0.85976  0.64014  0.17293  Biso   1.000  C  0.3166777917610792
  N107     1.0000 0.84544  0.62604  0.18846  Biso   1.000  N  -0.1568842887777657
  N108     1.0000 0.85501  0.61624  0.20923  Biso   1.000  N  -0.2277676151081365
  C807     1.0000 0.88958  0.60993  0.23864  Biso   1.000  C  0.1544738041701660
  N109     1.0000 0.87585  0.59400  0.25279  Biso   1.000  N  -0.2277676151081365
  N110     1.0000 0.88492  0.58500  0.27414  Biso   1.000  N  -0.2298671013259737
  C808     1.0000 0.90804  0.59166  0.28226  Biso   1.000  C  0.2476361797552317
  N111     1.0000 0.92178  0.60760  0.26803  Biso   1.000  N  -0.2248888988458065
  N112     1.0000 0.91275  0.61652  0.24660  Biso   1.000  N  -0.2298671013259737
  C809     1.0000 0.37921  0.12057  0.21628  Biso   1.000  C  0.1544342359644664
  N113     1.0000 0.39358  0.13474  0.20091  Biso   1.000  N  -0.2298671013259737
  N114     1.0000 0.38409  0.14427  0.17995  Biso   1.000  N  -0.1523748189823301
  C810     1.0000 0.35984  0.14014  0.17359  Biso   1.000  C  0.3166777917610792
  N115     1.0000 0.34554  0.12591  0.18903  Biso   1.000  N  -0.1566877427591413
  N116     1.0000 0.35505  0.11627  0.20991  Biso   1.000  N  -0.2277676151081365
  C811     1.0000 0.38944  0.11040  0.23963  Biso   1.000  C  0.1544342359644664
  N117     1.0000 0.37575  0.09436  0.25371  Biso   1.000  N  -0.2272241612084026
  N118     1.0000 0.38478  0.08544  0.27512  Biso   1.000  N  -0.2303048990349718
  C812     1.0000 0.40779  0.09228  0.28339  Biso   1.000  C  0.2505797930276468
  N119     1.0000 0.42148  0.10834  0.26923  Biso   1.000  N  -0.2248728203280629
  N120     1.0000 0.41250  0.11718  0.24774  Biso   1.000  N  -0.2303048990349718
  C813     1.0000 0.37961  0.62098  0.71595  Biso   1.000  C  0.1544738041701660
  N121     1.0000 0.36555  0.60651  0.70058  Biso   1.000  N  -0.2298671013259737
  N122     1.0000 0.35594  0.61593  0.67962  Biso   1.000  N  -0.1523748189823301
  C814     1.0000 0.35988  0.64021  0.67327  Biso   1.000  C  0.3166777917610792
  N123     1.0000 0.37401  0.65461  0.68871  Biso   1.000  N  -0.1570259460634034
  N124     1.0000 0.38372  0.64518  0.70959  Biso   1.000  N  -0.2277676151081365
  C815     1.0000 0.38984  0.61082  0.73930  Biso   1.000  C  0.1544342359644664
  N125     1.0000 0.40574  0.62463  0.75342  Biso   1.000  N  -0.2272241612084026
  N126     1.0000 0.41468  0.61567  0.77485  Biso   1.000  N  -0.2303048990349718
  C816     1.0000 0.40801  0.59259  0.78308  Biso   1.000  C  0.2498783920585014
  N127     1.0000 0.39210  0.57879  0.76888  Biso   1.000  N  -0.2249774230986708
  N128     1.0000 0.38323  0.58770  0.74738  Biso   1.000  N  -0.2298671013259737
  C817     1.0000 0.11990  0.87897  0.71528  Biso   1.000  C  0.1472405596172113
  N129     1.0000 0.11594  0.85472  0.70905  Biso   1.000  N  -0.2277676151081365
  N130     1.0000 0.12581  0.84522  0.68827  Biso   1.000  N  -0.1570259460634034
  C818     1.0000 0.13993  0.85960  0.67281  Biso   1.000  C  0.3166777917610792
  N131     1.0000 0.14372  0.88394  0.67905  Biso   1.000  N  -0.1523748189823301
  N132     1.0000 0.13396  0.89343  0.69990  Biso   1.000  N  -0.2272241612084026
  C819     1.0000 0.10954  0.88921  0.73854  Biso   1.000  C  0.1544738041701660
  N133     1.0000 0.11604  0.91239  0.74652  Biso   1.000  N  -0.2272241612084026
  N134     1.0000 0.10710  0.92137  0.76796  Biso   1.000  N  -0.2249774230986708
  C820     1.0000 0.09122  0.90757  0.78220  Biso   1.000  C  0.2476361797552317
  N135     1.0000 0.08464  0.88444  0.77406  Biso   1.000  N  -0.2298671013259737
  N136     1.0000 0.09366  0.87541  0.75269  Biso   1.000  N  -0.2272241612084026
  C821     1.0000 0.11958  0.37874  0.21582  Biso   1.000  C  0.1544342359644664
  N137     1.0000 0.13369  0.39322  0.20051  Biso   1.000  N  -0.2272241612084026
  N138     1.0000 0.14338  0.38381  0.17959  Biso   1.000  N  -0.1523748189823301
  C822     1.0000 0.13947  0.35953  0.17320  Biso   1.000  C  0.3166777917610792
  N139     1.0000 0.12527  0.34512  0.18858  Biso   1.000  N  -0.1555071729735532
  N140     1.0000 0.11548  0.35455  0.20943  Biso   1.000  N  -0.2272241612084026
  C823     1.0000 0.10934  0.38890  0.23918  Biso   1.000  C  0.1544342359644664
  N141     1.0000 0.09346  0.37510  0.25333  Biso   1.000  N  -0.2272241612084026
  N142     1.0000 0.08458  0.38407  0.27479  Biso   1.000  N  -0.2297660492280343
  C824     1.0000 0.09131  0.40714  0.28301  Biso   1.000  C  0.2476361797552317
  N143     1.0000 0.10719  0.42092  0.26876  Biso   1.000  N  -0.2290003791244508
  N144     1.0000 0.11599  0.41201  0.24724  Biso   1.000  N  -0.2272241612084026
  C825     1.0000 0.62091  0.87971  0.21572  Biso   1.000  C  0.1472405596172113
  N145     1.0000 0.60652  0.86570  0.20023  Biso   1.000  N  -0.2298671013259737
  N146     1.0000 0.61606  0.85613  0.17931  Biso   1.000  N  -0.1523748189823301
  C826     1.0000 0.64039  0.86006  0.17312  Biso   1.000  C  0.3166777917610792
  N147     1.0000 0.65471  0.87413  0.18868  Biso   1.000  N  -0.1566877427591413
  N148     1.0000 0.64515  0.88382  0.20952  Biso   1.000  N  -0.2272241612084026
  C827     1.0000 0.61063  0.88990  0.23903  Biso   1.000  C  0.1472405596172113
  N149     1.0000 0.62436  0.90580  0.25322  Biso   1.000  N  -0.2277676151081365
  N150     1.0000 0.61530  0.91470  0.27462  Biso   1.000  N  -0.2303048990349718
  C828     1.0000 0.59220  0.90798  0.28276  Biso   1.000  C  0.2476361797552317
  N151     1.0000 0.57848  0.89206  0.26849  Biso   1.000  N  -0.2248888988458065
  N152     1.0000 0.58749  0.88324  0.24701  Biso   1.000  N  -0.2298671013259737
  C829     1.0000 0.61969  0.37900  0.71590  Biso   1.000  C  0.1544342359644664
  N153     1.0000 0.61567  0.35476  0.70962  Biso   1.000  N  -0.2272241612084026
  N154     1.0000 0.62547  0.34528  0.68880  Biso   1.000  N  -0.1566877427591413
  C830     1.0000 0.63959  0.35967  0.67334  Biso   1.000  C  0.3166777917610792
  N155     1.0000 0.64342  0.38400  0.67961  Biso   1.000  N  -0.1523748189823301
  N156     1.0000 0.63372  0.39346  0.70050  Biso   1.000  N  -0.2272241612084026
  C831     1.0000 0.60943  0.38922  0.73922  Biso   1.000  C  0.1546024787288588
  N157     1.0000 0.61600  0.41239  0.74720  Biso   1.000  N  -0.2298671013259737
  N158     1.0000 0.60716  0.42136  0.76868  Biso   1.000  N  -0.2290003791244508
  C832     1.0000 0.59132  0.40757  0.78297  Biso   1.000  C  0.2476361797552317
  N159     1.0000 0.58468  0.38445  0.77484  Biso   1.000  N  -0.2303048990349718
  N160     1.0000 0.59360  0.37542  0.75343  Biso   1.000  N  -0.2272241612084026
  C833     1.0000 0.28453  0.12093  0.12034  Biso   1.000  C  0.1472405596172113
  N161     1.0000 0.29993  0.10657  0.13448  Biso   1.000  N  -0.2272241612084026
  N162     1.0000 0.32079  0.11613  0.14415  Biso   1.000  N  -0.1523748189823301
  C834     1.0000 0.32701  0.14045  0.14021  Biso   1.000  C  0.3166777917610792
  N163     1.0000 0.31153  0.15473  0.12602  Biso   1.000  N  -0.1570259460634034
  N164     1.0000 0.29074  0.14516  0.11623  Biso   1.000  N  -0.2277676151081365
  C835     1.0000 0.26129  0.11062  0.11001  Biso   1.000  C  0.1544342359644664
  N165     1.0000 0.24721  0.12431  0.09397  Biso   1.000  N  -0.2272241612084026
  N166     1.0000 0.22587  0.11523  0.08494  Biso   1.000  N  -0.2303048990349718
  C836     1.0000 0.21768  0.09215  0.09168  Biso   1.000  C  0.2476361797552317
  N167     1.0000 0.23184  0.07847  0.10772  Biso   1.000  N  -0.2253236656618047
  N168     1.0000 0.25326  0.08750  0.11667  Biso   1.000  N  -0.2298671013259737
  C837     1.0000 0.28411  0.61983  0.62079  Biso   1.000  C  0.1544738041701660
  N169     1.0000 0.29033  0.61571  0.64503  Biso   1.000  N  -0.2272241612084026
  N170     1.0000 0.31115  0.62544  0.65459  Biso   1.000  N  -0.1566877427591413
  C838     1.0000 0.32666  0.63959  0.64029  Biso   1.000  C  0.3166777917610792
  N171     1.0000 0.32044  0.64353  0.61597  Biso   1.000  N  -0.1524633432351943
  N172     1.0000 0.29956  0.63390  0.60642  Biso   1.000  N  -0.2272241612084026
  C839     1.0000 0.26081  0.60962  0.61050  Biso   1.000  C  0.1544342359644664
  N173     1.0000 0.25284  0.61629  0.58736  Biso   1.000  N  -0.2298671013259737
  N174     1.0000 0.23137  0.60747  0.57833  Biso   1.000  N  -0.2248888988458065
  C840     1.0000 0.21709  0.59154  0.59204  Biso   1.000  C  0.2505797930276468
  N175     1.0000 0.22522  0.58480  0.61514  Biso   1.000  N  -0.2303048990349718
  N176     1.0000 0.24661  0.59371  0.62422  Biso   1.000  N  -0.2272241612084026
  C841     1.0000 0.78448  0.11951  0.62106  Biso   1.000  C  0.1472405596172113
  N177     1.0000 0.79076  0.11554  0.64530  Biso   1.000  N  -0.2272241612084026
  N178     1.0000 0.81156  0.12540  0.65477  Biso   1.000  N  -0.1564386181393898
  C842     1.0000 0.82699  0.13952  0.64035  Biso   1.000  C  0.3166777917610792
  N179     1.0000 0.82072  0.14331  0.61602  Biso   1.000  N  -0.1523748189823301
  N180     1.0000 0.79984  0.13356  0.60658  Biso   1.000  N  -0.2272241612084026
  C843     1.0000 0.76118  0.10920  0.61087  Biso   1.000  C  0.1544342359644664
  N181     1.0000 0.75318  0.11574  0.58770  Biso   1.000  N  -0.2298671013259737
  N182     1.0000 0.73169  0.10687  0.57876  Biso   1.000  N  -0.2290003791244508
  C844     1.0000 0.71743  0.09104  0.59258  Biso   1.000  C  0.2476361797552317
  N183     1.0000 0.72559  0.08442  0.61570  Biso   1.000  N  -0.2298671013259737
  N184     1.0000 0.74700  0.09336  0.62469  Biso   1.000  N  -0.2277676151081365
  C845     1.0000 0.78419  0.62110  0.12019  Biso   1.000  C  0.1472405596172113
  N185     1.0000 0.79970  0.60673  0.13418  Biso   1.000  N  -0.2272241612084026
  N186     1.0000 0.82065  0.61628  0.14368  Biso   1.000  N  -0.1523748189823301
  C846     1.0000 0.82685  0.64060  0.13968  Biso   1.000  C  0.3166777917610792
  N187     1.0000 0.81128  0.65489  0.12560  Biso   1.000  N  -0.1566877427591413
  N188     1.0000 0.79040  0.64532  0.11599  Biso   1.000  N  -0.2272241612084026
  C847     1.0000 0.76082  0.61080  0.11014  Biso   1.000  C  0.1544342359644664
  N189     1.0000 0.74658  0.62447  0.09423  Biso   1.000  N  -0.2277676151081365
  N190     1.0000 0.72514  0.61539  0.08544  Biso   1.000  N  -0.2303048990349718
  C848     1.0000 0.71700  0.59233  0.09230  Biso   1.000  C  0.2476361797552317
  N191     1.0000 0.73131  0.57867  0.10824  Biso   1.000  N  -0.2248888988458065
  N192     1.0000 0.75283  0.58770  0.11694  Biso   1.000  N  -0.2298671013259737
  C849     1.0000 0.28359  0.87999  0.87896  Biso   1.000  C  0.1544738041701660
  N193     1.0000 0.29001  0.88415  0.85478  Biso   1.000  N  -0.2272241612084026
  N194     1.0000 0.31093  0.87448  0.84538  Biso   1.000  N  -0.1555071729735532
  C850     1.0000 0.32635  0.86034  0.85980  Biso   1.000  C  0.3166777917610792
  N195     1.0000 0.31993  0.85636  0.88406  Biso   1.000  N  -0.1523748189823301
  N196     1.0000 0.29894  0.86593  0.89344  Biso   1.000  N  -0.2272241612084026
  C851     1.0000 0.26018  0.89013  0.88908  Biso   1.000  C  0.1544342359644664
  N197     1.0000 0.25208  0.88344  0.91217  Biso   1.000  N  -0.2298671013259737
  N198     1.0000 0.23053  0.89220  0.92106  Biso   1.000  N  -0.2248888988458065
  C852     1.0000 0.21629  0.90809  0.90726  Biso   1.000  C  0.2505797930276468
  N199     1.0000 0.22455  0.91485  0.88422  Biso   1.000  N  -0.2303048990349718
  N200     1.0000 0.24603  0.90600  0.87527  Biso   1.000  N  -0.2272241612084026
  C853     1.0000 0.28463  0.37982  0.37896  Biso   1.000  C  0.1544738041701660
  N201     1.0000 0.29086  0.38387  0.35471  Biso   1.000  N  -0.2272241612084026
  N202     1.0000 0.31169  0.37413  0.34519  Biso   1.000  N  -0.1566877427591413
  C854     1.0000 0.32721  0.36005  0.35955  Biso   1.000  C  0.3166777917610792
  N203     1.0000 0.32099  0.35619  0.38389  Biso   1.000  N  -0.1523748189823301
  N204     1.0000 0.30008  0.36582  0.39339  Biso   1.000  N  -0.2272241612084026
  C855     1.0000 0.26130  0.39001  0.38920  Biso   1.000  C  0.1472405596172113
  N205     1.0000 0.25333  0.38340  0.41235  Biso   1.000  N  -0.2272241612084026
  N206     1.0000 0.23183  0.39220  0.42133  Biso   1.000  N  -0.2248888988458065
  C856     1.0000 0.21753  0.40805  0.40756  Biso   1.000  C  0.2476361797552317
  N207     1.0000 0.22566  0.41473  0.38445  Biso   1.000  N  -0.2298671013259737
  N208     1.0000 0.24708  0.40585  0.37542  Biso   1.000  N  -0.2277676151081365
  C857     1.0000 0.78419  0.87899  0.38004  Biso   1.000  C  0.1544342359644664
  N209     1.0000 0.79962  0.89336  0.36594  Biso   1.000  N  -0.2272241612084026
  N210     1.0000 0.82052  0.88383  0.35633  Biso   1.000  N  -0.1523748189823301
  C858     1.0000 0.82676  0.85952  0.36030  Biso   1.000  C  0.3166777917610792
  N211     1.0000 0.81127  0.84522  0.37447  Biso   1.000  N  -0.1570259460634034
  N212     1.0000 0.79045  0.85477  0.38420  Biso   1.000  N  -0.2272241612084026
  C859     1.0000 0.76087  0.88928  0.39022  Biso   1.000  C  0.1544342359644664
  N213     1.0000 0.74670  0.87560  0.40618  Biso   1.000  N  -0.2277676151081365
  N214     1.0000 0.72529  0.88467  0.41506  Biso   1.000  N  -0.2303048990349718
  C860     1.0000 0.71712  0.90773  0.40824  Biso   1.000  C  0.2498783920585014
  N215     1.0000 0.73137  0.92140  0.39226  Biso   1.000  N  -0.2253236656618047
  N216     1.0000 0.75285  0.91238  0.38346  Biso   1.000  N  -0.2298671013259737
  C861     1.0000 0.78432  0.38052  0.87880  Biso   1.000  C  0.1472405596172113
  N217     1.0000 0.79971  0.36649  0.89327  Biso   1.000  N  -0.2272241612084026
  N218     1.0000 0.82060  0.35677  0.88381  Biso   1.000  N  -0.1524633432351943
  C862     1.0000 0.82687  0.36058  0.85949  Biso   1.000  C  0.3166777917610792
  N219     1.0000 0.81142  0.37470  0.84508  Biso   1.000  N  -0.1524633432351943
  N220     1.0000 0.79060  0.38452  0.85456  Biso   1.000  N  -0.2272241612084026
  C863     1.0000 0.76101  0.39078  0.88901  Biso   1.000  C  0.1544342359644664
  N221     1.0000 0.74679  0.40660  0.87520  Biso   1.000  N  -0.2272241612084026
  N222     1.0000 0.72537  0.41550  0.88422  Biso   1.000  N  -0.2298671013259737
  C864     1.0000 0.71724  0.40886  0.90734  Biso   1.000  C  0.2476361797552317
  N223     1.0000 0.73154  0.39304  0.92114  Biso   1.000  N  -0.2290003791244508
  N224     1.0000 0.75303  0.38421  0.91218  Biso   1.000  N  -0.2298671013259737
  C865     1.0000 0.71593  0.87923  0.12030  Biso   1.000  C  0.1544342359644664
  N225     1.0000 0.70045  0.89357  0.13437  Biso   1.000  N  -0.2272241612084026
  N226     1.0000 0.67952  0.88401  0.14389  Biso   1.000  N  -0.1523748189823301
  C866     1.0000 0.67329  0.85971  0.13985  Biso   1.000  C  0.3166777917610792
  N227     1.0000 0.68883  0.84544  0.12570  Biso   1.000  N  -0.1566877427591413
  N228     1.0000 0.70969  0.85501  0.11607  Biso   1.000  N  -0.2272241612084026
  C867     1.0000 0.73927  0.88953  0.11020  Biso   1.000  C  0.1472405596172113
  N229     1.0000 0.75346  0.87586  0.09425  Biso   1.000  N  -0.2277676151081365
  N230     1.0000 0.77488  0.88494  0.08541  Biso   1.000  N  -0.2303048990349718
  C868     1.0000 0.78304  0.90800  0.09225  Biso   1.000  C  0.2476361797552317
  N231     1.0000 0.76877  0.92166  0.10822  Biso   1.000  N  -0.2248888988458065
  N232     1.0000 0.74727  0.91263  0.11698  Biso   1.000  N  -0.2298671013259737
  C869     1.0000 0.71550  0.38037  0.62129  Biso   1.000  C  0.1544738041701660
  N233     1.0000 0.70923  0.38432  0.64554  Biso   1.000  N  -0.2272241612084026
  N234     1.0000 0.68843  0.37444  0.65500  Biso   1.000  N  -0.1570259460634034
  C870     1.0000 0.67300  0.36033  0.64059  Biso   1.000  C  0.3166777917610792
  N235     1.0000 0.67927  0.35655  0.61625  Biso   1.000  N  -0.1523748189823301
  N236     1.0000 0.70013  0.36632  0.60681  Biso   1.000  N  -0.2272241612084026
  C871     1.0000 0.73878  0.39071  0.61108  Biso   1.000  C  0.1544342359644664
  N237     1.0000 0.74676  0.38420  0.58790  Biso   1.000  N  -0.2272241612084026
  N238     1.0000 0.76822  0.39309  0.57894  Biso   1.000  N  -0.2290003791244508
  C872     1.0000 0.78250  0.40892  0.59275  Biso   1.000  C  0.2476361797552317
  N239     1.0000 0.77437  0.41551  0.61589  Biso   1.000  N  -0.2300151738477859
  N240     1.0000 0.75297  0.40654  0.62491  Biso   1.000  N  -0.2272241612084026
  C873     1.0000 0.21605  0.88001  0.62091  Biso   1.000  C  0.1472405596172113
  N241     1.0000 0.20965  0.88411  0.64510  Biso   1.000  N  -0.2272241612084026
  N242     1.0000 0.18879  0.87432  0.65452  Biso   1.000  N  -0.1566877427591413
  C874     1.0000 0.17341  0.86014  0.64012  Biso   1.000  C  0.3166777917610792
  N243     1.0000 0.17981  0.85621  0.61584  Biso   1.000  N  -0.1523748189823301
  N244     1.0000 0.20074  0.86589  0.60644  Biso   1.000  N  -0.2272241612084026
  C875     1.0000 0.23939  0.89028  0.61077  Biso   1.000  C  0.1544738041701660
  N245     1.0000 0.24747  0.88366  0.58765  Biso   1.000  N  -0.2303048990349718
  N246     1.0000 0.26898  0.89252  0.57874  Biso   1.000  N  -0.2248888988458065
  C876     1.0000 0.28319  0.90842  0.59255  Biso   1.000  C  0.2498783920585014
  N247     1.0000 0.27495  0.91511  0.61562  Biso   1.000  N  -0.2300151738477859
  N248     1.0000 0.25351  0.90617  0.62458  Biso   1.000  N  -0.2272241612084026
  C877     1.0000 0.21544  0.38010  0.12111  Biso   1.000  C  0.1472405596172113
  N249     1.0000 0.20917  0.38408  0.14536  Biso   1.000  N  -0.2272241612084026
  N250     1.0000 0.18834  0.37429  0.15483  Biso   1.000  N  -0.1566877427591413
  C878     1.0000 0.17286  0.36023  0.14041  Biso   1.000  C  0.3166777917610792
  N251     1.0000 0.17912  0.35644  0.11607  Biso   1.000  N  -0.1524633432351943
  N252     1.0000 0.20002  0.36612  0.10663  Biso   1.000  N  -0.2272241612084026
  C879     1.0000 0.23878  0.39032  0.11092  Biso   1.000  C  0.1544342359644664
  N253     1.0000 0.24677  0.38373  0.08776  Biso   1.000  N  -0.2298671013259737
  N254     1.0000 0.26828  0.39254  0.07881  Biso   1.000  N  -0.2290003791244508
  C880     1.0000 0.28257  0.40836  0.09261  Biso   1.000  C  0.2476361797552317
  N255     1.0000 0.27443  0.41503  0.11572  Biso   1.000  N  -0.2300151738477859
  N256     1.0000 0.25299  0.40614  0.12473  Biso   1.000  N  -0.2272241612084026
  C881     1.0000 0.71542  0.11994  0.87896  Biso   1.000  C  0.1544342359644664
  N257     1.0000 0.70002  0.13397  0.89343  Biso   1.000  N  -0.2272241612084026
  N258     1.0000 0.67914  0.14368  0.88397  Biso   1.000  N  -0.1523748189823301
  C882     1.0000 0.67289  0.13988  0.85963  Biso   1.000  C  0.3166777917610792
  N259     1.0000 0.68835  0.12578  0.84523  Biso   1.000  N  -0.1564386181393898
  N260     1.0000 0.70917  0.11596  0.85471  Biso   1.000  N  -0.2272241612084026
  C883     1.0000 0.73872  0.10964  0.88917  Biso   1.000  C  0.1544738041701660
  N261     1.0000 0.75291  0.09381  0.87535  Biso   1.000  N  -0.2272241612084026
  N262     1.0000 0.77432  0.08487  0.88436  Biso   1.000  N  -0.2298671013259737
  C884     1.0000 0.78245  0.09148  0.90748  Biso   1.000  C  0.2476361797552317
  N263     1.0000 0.76818  0.10731  0.92130  Biso   1.000  N  -0.2253236656618047
  N264     1.0000 0.74670  0.11617  0.91234  Biso   1.000  N  -0.2272241612084026
  C885     1.0000 0.71623  0.62038  0.37931  Biso   1.000  C  0.1544738041701660
  N265     1.0000 0.70985  0.61612  0.35514  Biso   1.000  N  -0.2277676151081365
  N266     1.0000 0.68898  0.62580  0.34566  Biso   1.000  N  -0.1570259460634034
  C886     1.0000 0.67357  0.64004  0.35997  Biso   1.000  C  0.3166777917610792
  N267     1.0000 0.67995  0.64414  0.38423  Biso   1.000  N  -0.1523748189823301
  N268     1.0000 0.70090  0.63456  0.39369  Biso   1.000  N  -0.2272241612084026
  C887     1.0000 0.73957  0.61015  0.38951  Biso   1.000  C  0.1550042362190145
  N269     1.0000 0.74769  0.61688  0.41259  Biso   1.000  N  -0.2303048990349718
  N270     1.0000 0.76918  0.60801  0.42153  Biso   1.000  N  -0.2290003791244508
  C888     1.0000 0.78332  0.59199  0.40781  Biso   1.000  C  0.2476361797552317
  N271     1.0000 0.77505  0.58519  0.38478  Biso   1.000  N  -0.2303048990349718
  N272     1.0000 0.75364  0.59414  0.37578  Biso   1.000  N  -0.2272241612084026
  C889     1.0000 0.21534  0.11982  0.37906  Biso   1.000  C  0.1472405596172113
  N273     1.0000 0.20924  0.11576  0.35478  Biso   1.000  N  -0.2272241612084026
  N274     1.0000 0.18845  0.12549  0.34514  Biso   1.000  N  -0.1566877427591413
  C890     1.0000 0.17286  0.13957  0.35941  Biso   1.000  C  0.3166777917610792
  N275     1.0000 0.17895  0.14344  0.38378  Biso   1.000  N  -0.1523748189823301
  N276     1.0000 0.19980  0.13382  0.39340  Biso   1.000  N  -0.2272241612084026
  C891     1.0000 0.23862  0.10965  0.38942  Biso   1.000  C  0.1472405596172113
  N277     1.0000 0.24650  0.11632  0.41260  Biso   1.000  N  -0.2300151738477859
  N278     1.0000 0.26797  0.10753  0.42169  Biso   1.000  N  -0.2248888988458065
  C892     1.0000 0.28231  0.09165  0.40800  Biso   1.000  C  0.2476361797552317
  N279     1.0000 0.27427  0.08492  0.38487  Biso   1.000  N  -0.2298671013259737
  N280     1.0000 0.25289  0.09379  0.37574  Biso   1.000  N  -0.2277676151081365
  C893     1.0000 0.21608  0.62098  0.87991  Biso   1.000  C  0.1472405596172113
  N281     1.0000 0.20974  0.64517  0.88405  Biso   1.000  N  -0.2272241612084026
  N282     1.0000 0.18888  0.65464  0.87430  Biso   1.000  N  -0.1564386181393898
  C894     1.0000 0.17346  0.64028  0.86012  Biso   1.000  C  0.3166777917610792
  N283     1.0000 0.17981  0.61600  0.85615  Biso   1.000  N  -0.1524633432351943
  N284     1.0000 0.20073  0.60655  0.86579  Biso   1.000  N  -0.2272241612084026
  C895     1.0000 0.23941  0.61078  0.89016  Biso   1.000  C  0.1544342359644664
  N285     1.0000 0.24750  0.58769  0.88347  Biso   1.000  N  -0.2298671013259737
  N286     1.0000 0.26899  0.57874  0.89233  Biso   1.000  N  -0.2248888988458065
  C896     1.0000 0.28317  0.59248  0.90831  Biso   1.000  C  0.2476361797552317
  N287     1.0000 0.27492  0.61553  0.91508  Biso   1.000  N  -0.2300151738477859
  N288     1.0000 0.25351  0.62453  0.90613  Biso   1.000  N  -0.2272241612084026
  C897     1.0000 0.12090  0.28429  0.11966  Biso   1.000  C  0.1544738041701660
  N289     1.0000 0.10640  0.29962  0.13373  Biso   1.000  N  -0.2272241612084026
  N290     1.0000 0.11581  0.32049  0.14352  Biso   1.000  N  -0.1524633432351943
  C898     1.0000 0.14013  0.32680  0.13974  Biso   1.000  C  0.3166777917610792
  N291     1.0000 0.15457  0.31141  0.12561  Biso   1.000  N  -0.1570259460634034
  N292     1.0000 0.14514  0.29061  0.11572  Biso   1.000  N  -0.2272241612084026
  C899     1.0000 0.11074  0.26101  0.10927  Biso   1.000  C  0.1472405596172113
  N293     1.0000 0.12460  0.24688  0.09342  Biso   1.000  N  -0.2272241612084026
  N294     1.0000 0.11563  0.22549  0.08439  Biso   1.000  N  -0.2303048990349718
  C900     1.0000 0.09250  0.21731  0.09095  Biso   1.000  C  0.2476361797552317
  N295     1.0000 0.07865  0.23152  0.10680  Biso   1.000  N  -0.2253236656618047
  N296     1.0000 0.08757  0.25299  0.11574  Biso   1.000  N  -0.2272241612084026
  C901     1.0000 0.12124  0.78416  0.61969  Biso   1.000  C  0.1544738041701660
  N297     1.0000 0.14546  0.79046  0.61561  Biso   1.000  N  -0.2272241612084026
  N298     1.0000 0.15495  0.81131  0.62535  Biso   1.000  N  -0.1555071729735532
  C902     1.0000 0.14057  0.82678  0.63947  Biso   1.000  C  0.3166777917610792
  N299     1.0000 0.11626  0.82050  0.64335  Biso   1.000  N  -0.1524633432351943
  N300     1.0000 0.10679  0.79958  0.63372  Biso   1.000  N  -0.2298671013259737
  C903     1.0000 0.11103  0.76081  0.60952  Biso   1.000  C  0.1472405596172113
  N301     1.0000 0.08791  0.75279  0.61621  Biso   1.000  N  -0.2298671013259737
  N302     1.0000 0.07894  0.73127  0.60745  Biso   1.000  N  -0.2249774230986708
  C904     1.0000 0.09268  0.71700  0.59155  Biso   1.000  C  0.2476361797552317
  N303     1.0000 0.11575  0.72518  0.58477  Biso   1.000  N  -0.2303048990349718
  N304     1.0000 0.12477  0.74662  0.59363  Biso   1.000  N  -0.2277676151081365
  C905     1.0000 0.62111  0.28425  0.62000  Biso   1.000  C  0.1546024787288588
  N305     1.0000 0.60662  0.29955  0.63412  Biso   1.000  N  -0.2298671013259737
  N306     1.0000 0.61601  0.32046  0.64385  Biso   1.000  N  -0.1523748189823301
  C906     1.0000 0.64030  0.32684  0.63997  Biso   1.000  C  0.3166777917610792
  N307     1.0000 0.65473  0.31147  0.62579  Biso   1.000  N  -0.1555071729735532
  N308     1.0000 0.64532  0.29063  0.61596  Biso   1.000  N  -0.2272241612084026
  C907     1.0000 0.61097  0.26092  0.60968  Biso   1.000  C  0.1544342359644664
  N309     1.0000 0.62481  0.24680  0.59381  Biso   1.000  N  -0.2272241612084026
  N310     1.0000 0.61584  0.22538  0.58483  Biso   1.000  N  -0.2300151738477859
  C908     1.0000 0.59274  0.21717  0.59145  Biso   1.000  C  0.2505797930276468
  N311     1.0000 0.57891  0.23138  0.60732  Biso   1.000  N  -0.2249774230986708
  N312     1.0000 0.58782  0.25287  0.61622  Biso   1.000  N  -0.2298671013259737
  C909     1.0000 0.62035  0.78414  0.12083  Biso   1.000  C  0.1544342359644664
  N313     1.0000 0.63448  0.79954  0.10645  Biso   1.000  N  -0.2298671013259737
  N314     1.0000 0.64407  0.82046  0.11596  Biso   1.000  N  -0.1523748189823301
  C910     1.0000 0.64003  0.82676  0.14025  Biso   1.000  C  0.3166777917610792
  N315     1.0000 0.62584  0.81129  0.15455  Biso   1.000  N  -0.1566877427591413
  N316     1.0000 0.61614  0.79044  0.14502  Biso   1.000  N  -0.2277676151081365
  C911     1.0000 0.61013  0.76082  0.11058  Biso   1.000  C  0.1544342359644664
  N317     1.0000 0.59414  0.74672  0.12430  Biso   1.000  N  -0.2277676151081365
  N318     1.0000 0.58520  0.72532  0.11527  Biso   1.000  N  -0.2303048990349718
  C912     1.0000 0.59198  0.71709  0.09222  Biso   1.000  C  0.2498783920585014
  N319     1.0000 0.60798  0.73128  0.07850  Biso   1.000  N  -0.2248888988458065
  N320     1.0000 0.61684  0.75276  0.08748  Biso   1.000  N  -0.2298671013259737
  C913     1.0000 0.87877  0.28455  0.88012  Biso   1.000  C  0.1544738041701660
  N321     1.0000 0.89328  0.29990  0.86607  Biso   1.000  N  -0.2272241612084026
  N322     1.0000 0.88388  0.32079  0.85633  Biso   1.000  N  -0.1555071729735532
  C914     1.0000 0.85957  0.32712  0.86012  Biso   1.000  C  0.3166777917610792
  N323     1.0000 0.84512  0.31171  0.87423  Biso   1.000  N  -0.1555071729735532
  N324     1.0000 0.85454  0.29088  0.88408  Biso   1.000  N  -0.2272241612084026
  C915     1.0000 0.88892  0.26124  0.89044  Biso   1.000  C  0.1472405596172113
  N325     1.0000 0.87506  0.24708  0.90626  Biso   1.000  N  -0.2272241612084026
  N326     1.0000 0.88402  0.22566  0.91524  Biso   1.000  N  -0.2300151738477859
  C916     1.0000 0.90715  0.21749  0.90866  Biso   1.000  C  0.2476361797552317
  N327     1.0000 0.92101  0.23174  0.89285  Biso   1.000  N  -0.2290003791244508
  N328     1.0000 0.91209  0.25322  0.88395  Biso   1.000  N  -0.2298671013259737
  C917     1.0000 0.87982  0.78389  0.37888  Biso   1.000  C  0.1544738041701660
  N329     1.0000 0.88394  0.79028  0.35469  Biso   1.000  N  -0.2272241612084026
  N330     1.0000 0.87418  0.81115  0.34526  Biso   1.000  N  -0.1555071729735532
  C918     1.0000 0.86002  0.82655  0.35967  Biso   1.000  C  0.3166777917610792
  N331     1.0000 0.85607  0.82016  0.38394  Biso   1.000  N  -0.1524633432351943
  N332     1.0000 0.86572  0.79922  0.39335  Biso   1.000  N  -0.2272241612084026
  C919     1.0000 0.89011  0.76056  0.38903  Biso   1.000  C  0.1544342359644664
  N333     1.0000 0.88350  0.75246  0.41214  Biso   1.000  N  -0.2298671013259737
  N334     1.0000 0.89240  0.73098  0.42106  Biso   1.000  N  -0.2248888988458065
  C920     1.0000 0.90835  0.71681  0.40726  Biso   1.000  C  0.2505797930276468
  N335     1.0000 0.91503  0.72506  0.38419  Biso   1.000  N  -0.2303048990349718
  N336     1.0000 0.90605  0.74647  0.37523  Biso   1.000  N  -0.2272241612084026
  C921     1.0000 0.37912  0.28398  0.37987  Biso   1.000  C  0.1544738041701660
  N337     1.0000 0.39362  0.29933  0.36583  Biso   1.000  N  -0.2272241612084026
  N338     1.0000 0.38422  0.32026  0.35615  Biso   1.000  N  -0.1523748189823301
  C922     1.0000 0.35992  0.32661  0.36002  Biso   1.000  C  0.3166777917610792
  N339     1.0000 0.34549  0.31118  0.37412  Biso   1.000  N  -0.1570259460634034
  N340     1.0000 0.35490  0.29032  0.38390  Biso   1.000  N  -0.2272241612084026
  C923     1.0000 0.38926  0.26065  0.39018  Biso   1.000  C  0.1544342359644664
  N341     1.0000 0.37541  0.24653  0.40604  Biso   1.000  N  -0.2277676151081365
  N342     1.0000 0.38436  0.22512  0.41503  Biso   1.000  N  -0.2298671013259737
  C924     1.0000 0.40746  0.21691  0.40843  Biso   1.000  C  0.2476361797552317
  N343     1.0000 0.42131  0.23111  0.39256  Biso   1.000  N  -0.2290003791244508
  N344     1.0000 0.41241  0.25259  0.38365  Biso   1.000  N  -0.2298671013259737
  C925     1.0000 0.37897  0.78473  0.88042  Biso   1.000  C  0.1472405596172113
  N345     1.0000 0.35470  0.79086  0.88445  Biso   1.000  N  -0.2272241612084026
  N346     1.0000 0.34509  0.81163  0.87466  Biso   1.000  N  -0.1566877427591413
  C926     1.0000 0.35938  0.82718  0.86055  Biso   1.000  C  0.3166777917610792
  N347     1.0000 0.38375  0.82107  0.85672  Biso   1.000  N  -0.1523748189823301
  N348     1.0000 0.39334  0.80023  0.86640  Biso   1.000  N  -0.2272241612084026
  C927     1.0000 0.38931  0.76146  0.89064  Biso   1.000  C  0.1544738041701660
  N349     1.0000 0.41247  0.75354  0.88396  Biso   1.000  N  -0.2298671013259737
  N350     1.0000 0.42154  0.73208  0.89275  Biso   1.000  N  -0.2290003791244508
  C928     1.0000 0.40785  0.71776  0.90865  Biso   1.000  C  0.2476361797552317
  N351     1.0000 0.38474  0.72583  0.91540  Biso   1.000  N  -0.2303048990349718
  N352     1.0000 0.37562  0.74722  0.90653  Biso   1.000  N  -0.2277676151081365
  C929     1.0000 0.12020  0.71561  0.87903  Biso   1.000  C  0.1544738041701660
  N353     1.0000 0.13428  0.70022  0.89345  Biso   1.000  N  -0.2272241612084026
  N354     1.0000 0.14396  0.67933  0.88396  Biso   1.000  N  -0.1523748189823301
  C930     1.0000 0.14007  0.67307  0.85964  Biso   1.000  C  0.3166777917610792
  N355     1.0000 0.12592  0.68853  0.84528  Biso   1.000  N  -0.1555071729735532
  N356     1.0000 0.11614  0.70935  0.85480  Biso   1.000  N  -0.2272241612084026
  C931     1.0000 0.10990  0.73890  0.88927  Biso   1.000  C  0.1550042362190145
  N357     1.0000 0.09394  0.75301  0.87551  Biso   1.000  N  -0.2277676151081365
  N358     1.0000 0.08495  0.77438  0.88454  Biso   1.000  N  -0.2303048990349718
  C932     1.0000 0.09165  0.78258  0.90763  Biso   1.000  C  0.2505797930276468
  N359     1.0000 0.10762  0.76839  0.92137  Biso   1.000  N  -0.2290003791244508
  N360     1.0000 0.11653  0.74694  0.91240  Biso   1.000  N  -0.2298671013259737
  C933     1.0000 0.12085  0.21556  0.37968  Biso   1.000  C  0.1544738041701660
  N361     1.0000 0.10639  0.20019  0.36562  Biso   1.000  N  -0.2272241612084026
  N362     1.0000 0.11585  0.17930  0.35591  Biso   1.000  N  -0.1523748189823301
  C934     1.0000 0.14017  0.17301  0.35977  Biso   1.000  C  0.3166777917610792
  N363     1.0000 0.15456  0.18846  0.37389  Biso   1.000  N  -0.1570259460634034
  N364     1.0000 0.14509  0.20928  0.38370  Biso   1.000  N  -0.2272241612084026
  C935     1.0000 0.11066  0.23884  0.39003  Biso   1.000  C  0.1544738041701660
  N365     1.0000 0.12449  0.25298  0.40589  Biso   1.000  N  -0.2277676151081365
  N366     1.0000 0.11550  0.27436  0.41491  Biso   1.000  N  -0.2298671013259737
  C936     1.0000 0.09237  0.28253  0.40835  Biso   1.000  C  0.2476361797552317
  N367     1.0000 0.07854  0.26830  0.39248  Biso   1.000  N  -0.2249774230986708
  N368     1.0000 0.08748  0.24685  0.38354  Biso   1.000  N  -0.2298671013259737
  C937     1.0000 0.62095  0.71587  0.37993  Biso   1.000  C  0.1544738041701660
  N369     1.0000 0.60662  0.70033  0.36592  Biso   1.000  N  -0.2272241612084026
  N370     1.0000 0.61621  0.67940  0.35643  Biso   1.000  N  -0.1523748189823301
  C938     1.0000 0.64054  0.67324  0.36044  Biso   1.000  C  0.3166777917610792
  N371     1.0000 0.65479  0.68884  0.37454  Biso   1.000  N  -0.1570259460634034
  N372     1.0000 0.64518  0.70969  0.38414  Biso   1.000  N  -0.2272241612084026
  C939     1.0000 0.61061  0.73922  0.38998  Biso   1.000  C  0.1544342359644664
  N373     1.0000 0.62426  0.75348  0.40588  Biso   1.000  N  -0.2277676151081365
  N374     1.0000 0.61515  0.77490  0.41467  Biso   1.000  N  -0.2303048990349718
  C940     1.0000 0.59207  0.78300  0.40782  Biso   1.000  C  0.2476361797552317
  N375     1.0000 0.57843  0.76867  0.39189  Biso   1.000  N  -0.2253236656618047
  N376     1.0000 0.58749  0.74717  0.38318  Biso   1.000  N  -0.2303048990349718
  C941     1.0000 0.62088  0.21591  0.88007  Biso   1.000  C  0.1544342359644664
  N377     1.0000 0.60642  0.20058  0.86595  Biso   1.000  N  -0.2298671013259737
  N378     1.0000 0.61585  0.17967  0.85626  Biso   1.000  N  -0.1524633432351943
  C942     1.0000 0.64013  0.17330  0.86019  Biso   1.000  C  0.3166777917610792
  N379     1.0000 0.65452  0.18870  0.87438  Biso   1.000  N  -0.1566877427591413
  N380     1.0000 0.64508  0.20954  0.88417  Biso   1.000  N  -0.2272241612084026
  C943     1.0000 0.61070  0.23923  0.89035  Biso   1.000  C  0.1546024787288588
  N381     1.0000 0.62452  0.25337  0.90624  Biso   1.000  N  -0.2272241612084026
  N382     1.0000 0.61553  0.27479  0.91519  Biso   1.000  N  -0.2298671013259737
  C944     1.0000 0.59244  0.28298  0.90855  Biso   1.000  C  0.2476361797552317
  N383     1.0000 0.57863  0.26876  0.89266  Biso   1.000  N  -0.2248888988458065
  N384     1.0000 0.58756  0.24727  0.88378  Biso   1.000  N  -0.2298671013259737
  C945     1.0000 0.87983  0.71624  0.12089  Biso   1.000  C  0.1544738041701660
  N385     1.0000 0.86564  0.70092  0.10649  Biso   1.000  N  -0.2272241612084026
  N386     1.0000 0.85603  0.67998  0.11593  Biso   1.000  N  -0.1524633432351943
  C946     1.0000 0.86010  0.67358  0.14018  Biso   1.000  C  0.3166777917610792
  N387     1.0000 0.87435  0.68896  0.15452  Biso   1.000  N  -0.1564386181393898
  N388     1.0000 0.88407  0.70983  0.14505  Biso   1.000  N  -0.2272241612084026
  C947     1.0000 0.89007  0.73957  0.11070  Biso   1.000  C  0.1546024787288588
  N389     1.0000 0.90607  0.75365  0.12445  Biso   1.000  N  -0.2272241612084026
  N390     1.0000 0.91502  0.77506  0.11546  Biso   1.000  N  -0.2303048990349718
  C948     1.0000 0.90824  0.78334  0.09243  Biso   1.000  C  0.2505797930276468
  N391     1.0000 0.89223  0.76918  0.07869  Biso   1.000  N  -0.2248888988458065
  N392     1.0000 0.88336  0.74769  0.08762  Biso   1.000  N  -0.2298671013259737
  C949     1.0000 0.87882  0.21563  0.61981  Biso   1.000  C  0.1544342359644664
  N393     1.0000 0.85461  0.20925  0.61579  Biso   1.000  N  -0.2277676151081365
  N394     1.0000 0.84522  0.18840  0.62560  Biso   1.000  N  -0.1570259460634034
  C950     1.0000 0.85966  0.17301  0.63974  Biso   1.000  C  0.3166777917610792
  N395     1.0000 0.88396  0.17939  0.64359  Biso   1.000  N  -0.1523748189823301
  N396     1.0000 0.89334  0.20031  0.63387  Biso   1.000  N  -0.2272241612084026
  C951     1.0000 0.88895  0.23897  0.60952  Biso   1.000  C  0.1550042362190145
  N397     1.0000 0.91211  0.24702  0.61603  Biso   1.000  N  -0.2298671013259737
  N398     1.0000 0.92100  0.26852  0.60716  Biso   1.000  N  -0.2290003791244508
  C952     1.0000 0.90713  0.28277  0.59135  Biso   1.000  C  0.2498783920585014
  N399     1.0000 0.88402  0.27457  0.58475  Biso   1.000  N  -0.2300151738477859
  N400     1.0000 0.87507  0.25313  0.59370  Biso   1.000  N  -0.2272241612084026
  C953     1.0000 0.37892  0.71549  0.62002  Biso   1.000  C  0.1544738041701660
  N401     1.0000 0.39332  0.70007  0.63409  Biso   1.000  N  -0.2298671013259737
  N402     1.0000 0.38380  0.67917  0.64373  Biso   1.000  N  -0.1523748189823301
  C954     1.0000 0.35948  0.67294  0.63983  Biso   1.000  C  0.3166777917610792
  N403     1.0000 0.34515  0.68843  0.62569  Biso   1.000  N  -0.1570259460634034
  N404     1.0000 0.35468  0.70925  0.61594  Biso   1.000  N  -0.2272241612084026
  C955     1.0000 0.38918  0.73880  0.60980  Biso   1.000  C  0.1544738041701660
  N405     1.0000 0.37544  0.75299  0.59390  Biso   1.000  N  -0.2277676151081365
  N406     1.0000 0.38449  0.77439  0.58500  Biso   1.000  N  -0.2298671013259737
  C956     1.0000 0.40759  0.78253  0.59172  Biso   1.000  C  0.2476361797552317
  N407     1.0000 0.42132  0.76826  0.60762  Biso   1.000  N  -0.2290003791244508
  N408     1.0000 0.41232  0.74678  0.61644  Biso   1.000  N  -0.2272241612084026
  C957     1.0000 0.37984  0.21590  0.12092  Biso   1.000  C  0.1472405596172113
  N409     1.0000 0.38402  0.20976  0.14516  Biso   1.000  N  -0.2272241612084026
  N410     1.0000 0.37439  0.18892  0.15479  Biso   1.000  N  -0.1566877427591413
  C958     1.0000 0.36030  0.17332  0.14054  Biso   1.000  C  0.3166777917610792
  N411     1.0000 0.35632  0.17945  0.11620  Biso   1.000  N  -0.1523748189823301
  N412     1.0000 0.36584  0.20036  0.10660  Biso   1.000  N  -0.2272241612084026
  C959     1.0000 0.38993  0.23923  0.11056  Biso   1.000  C  0.1544342359644664
  N413     1.0000 0.38311  0.24720  0.08746  Biso   1.000  N  -0.2298671013259737
  N414     1.0000 0.39184  0.26868  0.07838  Biso   1.000  N  -0.2253236656618047
  C960     1.0000 0.40783  0.28297  0.09200  Biso   1.000  C  0.2498783920585014
  N415     1.0000 0.41472  0.27485  0.11505  Biso   1.000  N  -0.2298671013259737
  N416     1.0000 0.40590  0.25345  0.12418  Biso   1.000  N  -0.2277676151081365
  C961     1.0000 0.11961  0.12104  0.71584  Biso   1.000  C  0.1472405596172113
  N417     1.0000 0.13368  0.10652  0.70052  Biso   1.000  N  -0.2298671013259737
  N418     1.0000 0.14343  0.11591  0.67961  Biso   1.000  N  -0.1523748189823301
  C962     1.0000 0.13962  0.14022  0.67327  Biso   1.000  C  0.3166777917610792
  N419     1.0000 0.12549  0.15467  0.68866  Biso   1.000  N  -0.1566877427591413
  N420     1.0000 0.11564  0.14526  0.70949  Biso   1.000  N  -0.2277676151081365
  C963     1.0000 0.10929  0.11090  0.73915  Biso   1.000  C  0.1544342359644664
  N421     1.0000 0.09346  0.12477  0.75331  Biso   1.000  N  -0.2272241612084026
  N422     1.0000 0.08449  0.11581  0.77473  Biso   1.000  N  -0.2303048990349718
  C964     1.0000 0.09107  0.09269  0.78291  Biso   1.000  C  0.2476361797552317
  N423     1.0000 0.10688  0.07883  0.76867  Biso   1.000  N  -0.2290003791244508
  N424     1.0000 0.11578  0.08773  0.74718  Biso   1.000  N  -0.2298671013259737
  C965     1.0000 0.12112  0.62000  0.21537  Biso   1.000  C  0.1472405596172113
  N425     1.0000 0.14536  0.61598  0.20913  Biso   1.000  N  -0.2277676151081365
  N426     1.0000 0.15487  0.62579  0.18833  Biso   1.000  N  -0.1570259460634034
  C966     1.0000 0.14051  0.63992  0.17286  Biso   1.000  C  0.3166777917610792
  N427     1.0000 0.11618  0.64378  0.17910  Biso   1.000  N  -0.1523748189823301
  N428     1.0000 0.10669  0.63407  0.19998  Biso   1.000  N  -0.2272241612084026
  C967     1.0000 0.11088  0.60969  0.23865  Biso   1.000  C  0.1472405596172113
  N429     1.0000 0.08774  0.61630  0.24667  Biso   1.000  N  -0.2298671013259737
  N430     1.0000 0.07876  0.60740  0.26813  Biso   1.000  N  -0.2249774230986708
  C968     1.0000 0.09251  0.59145  0.28233  Biso   1.000  C  0.2476361797552317
  N431     1.0000 0.11560  0.58476  0.27415  Biso   1.000  N  -0.2303048990349718
  N432     1.0000 0.12463  0.59375  0.25277  Biso   1.000  N  -0.2277676151081365
  C969     1.0000 0.61965  0.12108  0.21595  Biso   1.000  C  0.1544738041701660
  N433     1.0000 0.63373  0.10669  0.20053  Biso   1.000  N  -0.2272241612084026
  N434     1.0000 0.64334  0.11619  0.17962  Biso   1.000  N  -0.1523748189823301
  C970     1.0000 0.63938  0.14050  0.17335  Biso   1.000  C  0.3166777917610792
  N435     1.0000 0.62521  0.15482  0.18882  Biso   1.000  N  -0.1555071729735532
  N436     1.0000 0.61549  0.14529  0.20967  Biso   1.000  N  -0.2272241612084026
  C971     1.0000 0.60950  0.11082  0.23930  Biso   1.000  C  0.1546024787288588
  N437     1.0000 0.59361  0.12455  0.25352  Biso   1.000  N  -0.2272241612084026
  N438     1.0000 0.58478  0.11549  0.27496  Biso   1.000  N  -0.2300151738477859
  C972     1.0000 0.59156  0.09241  0.28310  Biso   1.000  C  0.2476361797552317
  N439     1.0000 0.60745  0.07870  0.26880  Biso   1.000  N  -0.2290003791244508
  N440     1.0000 0.61621  0.08770  0.24729  Biso   1.000  N  -0.2298671013259737
  C973     1.0000 0.62094  0.62023  0.71560  Biso   1.000  C  0.1544738041701660
  N441     1.0000 0.64518  0.61601  0.70945  Biso   1.000  N  -0.2272241612084026
  N442     1.0000 0.65483  0.62564  0.68863  Biso   1.000  N  -0.1566877427591413
  C974     1.0000 0.64061  0.63978  0.67303  Biso   1.000  C  0.3166777917610792
  N443     1.0000 0.61628  0.64380  0.67917  Biso   1.000  N  -0.1523748189823301
  N444     1.0000 0.60665  0.63428  0.70007  Biso   1.000  N  -0.2272241612084026
  C975     1.0000 0.61056  0.61014  0.73892  Biso   1.000  C  0.1546024787288588
  N445     1.0000 0.58746  0.61697  0.74688  Biso   1.000  N  -0.2298671013259737
  N446     1.0000 0.57837  0.60823  0.76836  Biso   1.000  N  -0.2248888988458065
  C976     1.0000 0.59197  0.59222  0.78265  Biso   1.000  C  0.2476361797552317
  N447     1.0000 0.61502  0.58533  0.77453  Biso   1.000  N  -0.2298671013259737
  N448     1.0000 0.62417  0.59415  0.75314  Biso   1.000  N  -0.2277676151081365
  C977     1.0000 0.87892  0.87981  0.71552  Biso   1.000  C  0.1544738041701660
  N449     1.0000 0.89331  0.86578  0.70005  Biso   1.000  N  -0.2272241612084026
  N450     1.0000 0.88378  0.85618  0.67915  Biso   1.000  N  -0.1524633432351943
  C978     1.0000 0.85945  0.86009  0.67294  Biso   1.000  C  0.3166777917610792
  N451     1.0000 0.84513  0.87420  0.68847  Biso   1.000  N  -0.1566877427591413
  N452     1.0000 0.85468  0.88391  0.70930  Biso   1.000  N  -0.2272241612084026
  C979     1.0000 0.88920  0.89000  0.73883  Biso   1.000  C  0.1544738041701660
  N453     1.0000 0.87551  0.90597  0.75299  Biso   1.000  N  -0.2272241612084026
  N454     1.0000 0.88457  0.91486  0.77440  Biso   1.000  N  -0.2303048990349718
  C980     1.0000 0.90763  0.90805  0.78257  Biso   1.000  C  0.2476361797552317
  N455     1.0000 0.92132  0.89207  0.76834  Biso   1.000  N  -0.2248888988458065
  N456     1.0000 0.91230  0.88326  0.74685  Biso   1.000  N  -0.2303048990349718
  C981     1.0000 0.88023  0.37893  0.21589  Biso   1.000  C  0.1544738041701660
  N457     1.0000 0.86618  0.39338  0.20051  Biso   1.000  N  -0.2272241612084026
  N458     1.0000 0.85655  0.38394  0.17958  Biso   1.000  N  -0.1523748189823301
  C982     1.0000 0.86046  0.35964  0.17325  Biso   1.000  C  0.3166777917610792
  N459     1.0000 0.87460  0.34526  0.18870  Biso   1.000  N  -0.1566877427591413
  N460     1.0000 0.88433  0.35472  0.20956  Biso   1.000  N  -0.2272241612084026
  C983     1.0000 0.89043  0.38911  0.23925  Biso   1.000  C  0.1544738041701660
  N461     1.0000 0.90628  0.37532  0.25343  Biso   1.000  N  -0.2277676151081365
  N462     1.0000 0.91516  0.38430  0.27488  Biso   1.000  N  -0.2297660492280343
  C984     1.0000 0.90844  0.40739  0.28307  Biso   1.000  C  0.2498783920585014
  N463     1.0000 0.89258  0.42117  0.26880  Biso   1.000  N  -0.2290003791244508
  N464     1.0000 0.88379  0.41224  0.24728  Biso   1.000  N  -0.2298671013259737
  C985     1.0000 0.37888  0.88017  0.21566  Biso   1.000  C  0.1546024787288588
  N465     1.0000 0.35465  0.88424  0.20938  Biso   1.000  N  -0.2272241612084026
  N466     1.0000 0.34515  0.87444  0.18856  Biso   1.000  N  -0.1555071729735532
  C986     1.0000 0.35951  0.86027  0.17312  Biso   1.000  C  0.3166777917610792
  N467     1.0000 0.38383  0.85639  0.17940  Biso   1.000  N  -0.1523748189823301
  N468     1.0000 0.39331  0.86608  0.20028  Biso   1.000  N  -0.2272241612084026
  C987     1.0000 0.38911  0.89044  0.23897  Biso   1.000  C  0.1544342359644664
  N469     1.0000 0.41224  0.88379  0.24699  Biso   1.000  N  -0.2298671013259737
  N470     1.0000 0.42122  0.89263  0.26847  Biso   1.000  N  -0.2290003791244508
  C988     1.0000 0.40748  0.90856  0.28270  Biso   1.000  C  0.2476361797552317
  N471     1.0000 0.38440  0.91529  0.27453  Biso   1.000  N  -0.2303048990349718
  N472     1.0000 0.37537  0.90636  0.25312  Biso   1.000  N  -0.2277676151081365
  C989     1.0000 0.37920  0.37969  0.71620  Biso   1.000  C  0.1544738041701660
  N473     1.0000 0.35501  0.38391  0.70989  Biso   1.000  N  -0.2272241612084026
  N474     1.0000 0.34549  0.37423  0.68903  Biso   1.000  N  -0.1570259460634034
  C990     1.0000 0.35979  0.36005  0.67356  Biso   1.000  C  0.3166777917610792
  N475     1.0000 0.38408  0.35600  0.67986  Biso   1.000  N  -0.1523667797234582
  N476     1.0000 0.39358  0.36557  0.70080  Biso   1.000  N  -0.2298671013259737
  C991     1.0000 0.38945  0.38988  0.73953  Biso   1.000  C  0.1544738041701660
  N477     1.0000 0.41251  0.38310  0.74762  Biso   1.000  N  -0.2298671013259737
  N478     1.0000 0.42150  0.39193  0.76911  Biso   1.000  N  -0.2248888988458065
  C992     1.0000 0.40782  0.40797  0.78328  Biso   1.000  C  0.2476361797552317
  N479     1.0000 0.38480  0.41482  0.77503  Biso   1.000  N  -0.2303048990349718
  N480     1.0000 0.37576  0.40591  0.75362  Biso   1.000  N  -0.2272241612084026
  C993     1.0000 0.12110  0.87995  0.28428  Biso   1.000  C  0.1472405596172113
  N481     1.0000 0.10666  0.86586  0.29965  Biso   1.000  N  -0.2298671013259737
  N482     1.0000 0.11613  0.85617  0.32055  Biso   1.000  N  -0.1523748189823301
  C994     1.0000 0.14044  0.86007  0.32684  Biso   1.000  C  0.3166777917610792
  N483     1.0000 0.15481  0.87422  0.31140  Biso   1.000  N  -0.1566877427591413
  N484     1.0000 0.14532  0.88401  0.29057  Biso   1.000  N  -0.2272241612084026
  C995     1.0000 0.11089  0.89026  0.26099  Biso   1.000  C  0.1544342359644664
  N485     1.0000 0.12467  0.90618  0.24686  Biso   1.000  N  -0.2272241612084026
  N486     1.0000 0.11565  0.91517  0.22547  Biso   1.000  N  -0.2303048990349718
  C996     1.0000 0.09256  0.90850  0.21729  Biso   1.000  C  0.2476361797552317
  N487     1.0000 0.07878  0.89257  0.23149  Biso   1.000  N  -0.2248888988458065
  N488     1.0000 0.08774  0.88367  0.25296  Biso   1.000  N  -0.2303048990349718
  C997     1.0000 0.11988  0.37897  0.78376  Biso   1.000  C  0.1544342359644664
  N489     1.0000 0.13394  0.39347  0.79910  Biso   1.000  N  -0.2298671013259737
  N490     1.0000 0.14358  0.38408  0.82006  Biso   1.000  N  -0.1523667797234582
  C998     1.0000 0.13967  0.35979  0.82644  Biso   1.000  C  0.3166777917610792
  N491     1.0000 0.12554  0.34537  0.81102  Biso   1.000  N  -0.1570259460634034
  N492     1.0000 0.11580  0.35477  0.79014  Biso   1.000  N  -0.2277676151081365
  C999     1.0000 0.10966  0.38910  0.76039  Biso   1.000  C  0.1544342359644664
  N493     1.0000 0.09380  0.37528  0.74624  Biso   1.000  N  -0.2272241612084026
  N494     1.0000 0.08489  0.38423  0.72479  Biso   1.000  N  -0.2303048990349718
  C1000    1.0000 0.09159  0.40730  0.71656  Biso   1.000  C  0.2498783920585014
  N495     1.0000 0.10746  0.42112  0.73079  Biso   1.000  N  -0.2249774230986708
  N496     1.0000 0.11628  0.41222  0.75231  Biso   1.000  N  -0.2298671013259737
  C1001    1.0000 0.62014  0.87894  0.78450  Biso   1.000  C  0.1472405596172113
  N497     1.0000 0.61612  0.85472  0.79082  Biso   1.000  N  -0.2272241612084026
  N498     1.0000 0.62592  0.84527  0.81166  Biso   1.000  N  -0.1555071729735532
  C1002    1.0000 0.64004  0.85969  0.82709  Biso   1.000  C  0.3166777917610792
  N499     1.0000 0.64390  0.88399  0.82077  Biso   1.000  N  -0.1524633432351943
  N500     1.0000 0.63420  0.89342  0.79986  Biso   1.000  N  -0.2298671013259737
  C1003    1.0000 0.60984  0.88911  0.76119  Biso   1.000  C  0.1544342359644664
  N501     1.0000 0.61640  0.91225  0.75313  Biso   1.000  N  -0.2298671013259737
  N502     1.0000 0.60750  0.92117  0.73165  Biso   1.000  N  -0.2290003791244508
  C1004    1.0000 0.59161  0.90736  0.71744  Biso   1.000  C  0.2476361797552317
  N503     1.0000 0.58497  0.88426  0.72565  Biso   1.000  N  -0.2303048990349718
  N504     1.0000 0.59395  0.87529  0.74706  Biso   1.000  N  -0.2272241612084026
  C1005    1.0000 0.61969  0.37876  0.28427  Biso   1.000  C  0.1544342359644664
  N505     1.0000 0.61566  0.35452  0.29054  Biso   1.000  N  -0.2272241612084026
  N506     1.0000 0.62543  0.34505  0.31138  Biso   1.000  N  -0.1566877427591413
  C1006    1.0000 0.63952  0.35944  0.32686  Biso   1.000  C  0.3166777917610792
  N507     1.0000 0.64336  0.38377  0.32059  Biso   1.000  N  -0.1523748189823301
  N508     1.0000 0.63370  0.39322  0.29968  Biso   1.000  N  -0.2272241612084026
  C1007    1.0000 0.60949  0.38897  0.26092  Biso   1.000  C  0.1544738041701660
  N509     1.0000 0.61611  0.41212  0.25295  Biso   1.000  N  -0.2298671013259737
  N510     1.0000 0.60734  0.42110  0.23144  Biso   1.000  N  -0.2248888988458065
  C1008    1.0000 0.59151  0.40732  0.21712  Biso   1.000  C  0.2505797930276468
  N511     1.0000 0.58481  0.38421  0.22525  Biso   1.000  N  -0.2303048990349718
  N512     1.0000 0.59367  0.37519  0.24669  Biso   1.000  N  -0.2277676151081365
  C1009    1.0000 0.88052  0.12116  0.28415  Biso   1.000  C  0.1544342359644664
  N513     1.0000 0.88461  0.14537  0.29052  Biso   1.000  N  -0.2272241612084026
  N514     1.0000 0.87478  0.15481  0.31136  Biso   1.000  N  -0.1555071729735532
  C1010    1.0000 0.86057  0.14042  0.32673  Biso   1.000  C  0.3166777917610792
  N515     1.0000 0.85667  0.11613  0.32036  Biso   1.000  N  -0.1523748189823301
  N516     1.0000 0.86639  0.10670  0.29946  Biso   1.000  N  -0.2272241612084026
  C1011    1.0000 0.89078  0.11099  0.26082  Biso   1.000  C  0.1550042362190145
  N517     1.0000 0.88413  0.08787  0.25276  Biso   1.000  N  -0.2298671013259737
  N518     1.0000 0.89295  0.07894  0.23126  Biso   1.000  N  -0.2290003791244508
  C1012    1.0000 0.90885  0.09271  0.21701  Biso   1.000  C  0.2498783920585014
  N519     1.0000 0.91559  0.11578  0.22522  Biso   1.000  N  -0.2300151738477859
  N520     1.0000 0.90669  0.12477  0.24666  Biso   1.000  N  -0.2272241612084026
  C1013    1.0000 0.87993  0.62108  0.78447  Biso   1.000  C  0.1544342359644664
  N521     1.0000 0.86583  0.60663  0.79983  Biso   1.000  N  -0.2298671013259737
  N522     1.0000 0.85612  0.61609  0.82072  Biso   1.000  N  -0.1523748189823301
  C1014    1.0000 0.85999  0.64041  0.82702  Biso   1.000  C  0.3166777917610792
  N523     1.0000 0.87415  0.65478  0.81159  Biso   1.000  N  -0.1566877427591413
  N524     1.0000 0.88397  0.64530  0.79077  Biso   1.000  N  -0.2272241612084026
  C1015    1.0000 0.89026  0.61086  0.76118  Biso   1.000  C  0.1546024787288588
  N525     1.0000 0.90619  0.62464  0.74706  Biso   1.000  N  -0.2272241612084026
  N526     1.0000 0.91518  0.61562  0.72568  Biso   1.000  N  -0.2303048990349718
  C1016    1.0000 0.90852  0.59252  0.71749  Biso   1.000  C  0.2476361797552317
  N527     1.0000 0.89259  0.57875  0.73170  Biso   1.000  N  -0.2253236656618047
  N528     1.0000 0.88367  0.58772  0.75315  Biso   1.000  N  -0.2298671013259737
  C1017    1.0000 0.38038  0.12092  0.78432  Biso   1.000  C  0.1544738041701660
  N529     1.0000 0.36635  0.10643  0.79969  Biso   1.000  N  -0.2272241612084026
  N530     1.0000 0.35658  0.11587  0.82056  Biso   1.000  N  -0.1523748189823301
  C1018    1.0000 0.36032  0.14022  0.82681  Biso   1.000  C  0.3166777917610792
  N531     1.0000 0.37442  0.15464  0.81137  Biso   1.000  N  -0.1570259460634034
  N532     1.0000 0.38430  0.14518  0.79058  Biso   1.000  N  -0.2272241612084026
  C1019    1.0000 0.39073  0.11072  0.76104  Biso   1.000  C  0.1544342359644664
  N533     1.0000 0.40656  0.12456  0.74686  Biso   1.000  N  -0.2272241612084026
  N534     1.0000 0.41555  0.11555  0.72547  Biso   1.000  N  -0.2303048990349718
  C1020    1.0000 0.40897  0.09241  0.71733  Biso   1.000  C  0.2476361797552317
  N535     1.0000 0.39315  0.07858  0.73159  Biso   1.000  N  -0.2290003791244508
  N536     1.0000 0.38425  0.08753  0.75306  Biso   1.000  N  -0.2298671013259737
  C1021    1.0000 0.37918  0.62022  0.28434  Biso   1.000  C  0.1472405596172113
  N537     1.0000 0.35495  0.61609  0.29055  Biso   1.000  N  -0.2277676151081365
  N538     1.0000 0.34538  0.62580  0.31137  Biso   1.000  N  -0.1570259460634034
  C1022    1.0000 0.35967  0.63993  0.32690  Biso   1.000  C  0.3166777917610792
  N539     1.0000 0.38400  0.64389  0.32069  Biso   1.000  N  -0.1523748189823301
  N540     1.0000 0.39355  0.63429  0.29980  Biso   1.000  N  -0.2272241612084026
  C1023    1.0000 0.38947  0.61000  0.26105  Biso   1.000  C  0.1544738041701660
  N541     1.0000 0.41261  0.61666  0.25306  Biso   1.000  N  -0.2303048990349718
  N542     1.0000 0.42163  0.60781  0.23159  Biso   1.000  N  -0.2248888988458065
  C1024    1.0000 0.40791  0.59186  0.21735  Biso   1.000  C  0.2476361797552317
  N543     1.0000 0.38482  0.58513  0.22550  Biso   1.000  N  -0.2298671013259737
  N544     1.0000 0.37575  0.59407  0.24688  Biso   1.000  N  -0.2277676151081365
  C1025    1.0000 0.12094  0.28449  0.87979  Biso   1.000  C  0.1544738041701660
  N545     1.0000 0.14518  0.29078  0.88378  Biso   1.000  N  -0.2272241612084026
  N546     1.0000 0.15464  0.31161  0.87397  Biso   1.000  N  -0.1566877427591413
  C1026    1.0000 0.14022  0.32706  0.85988  Biso   1.000  C  0.3166777917610792
  N547     1.0000 0.11590  0.32078  0.85606  Biso   1.000  N  -0.1523748189823301
  N548     1.0000 0.10646  0.29988  0.86577  Biso   1.000  N  -0.2272241612084026
  C1027    1.0000 0.11076  0.26118  0.89009  Biso   1.000  C  0.1544342359644664
  N549     1.0000 0.08756  0.25320  0.88361  Biso   1.000  N  -0.2298671013259737
  N550     1.0000 0.07862  0.23173  0.89250  Biso   1.000  N  -0.2249774230986708
  C1028    1.0000 0.09247  0.21744  0.90830  Biso   1.000  C  0.2505797930276468
  N551     1.0000 0.11562  0.22558  0.91485  Biso   1.000  N  -0.2303048990349718
  N552     1.0000 0.12461  0.24698  0.90588  Biso   1.000  N  -0.2277676151081365
  C1029    1.0000 0.12023  0.78403  0.37899  Biso   1.000  C  0.1544738041701660
  N553     1.0000 0.11606  0.79038  0.35480  Biso   1.000  N  -0.2272241612084026
  N554     1.0000 0.12576  0.81125  0.34531  Biso   1.000  N  -0.1555071729735532
  C1030    1.0000 0.13994  0.82669  0.35966  Biso   1.000  C  0.3166777917610792
  N555     1.0000 0.14394  0.82035  0.38394  Biso   1.000  N  -0.1523748189823301
  N556     1.0000 0.13434  0.79941  0.39340  Biso   1.000  N  -0.2272241612084026
  C1031    1.0000 0.11004  0.76068  0.38919  Biso   1.000  C  0.1544738041701660
  N557     1.0000 0.11673  0.75261  0.41229  Biso   1.000  N  -0.2298671013259737
  N558     1.0000 0.10791  0.73110  0.42124  Biso   1.000  N  -0.2248888988458065
  C1032    1.0000 0.09196  0.71689  0.40749  Biso   1.000  C  0.2505797930276468
  N559     1.0000 0.08520  0.72512  0.38444  Biso   1.000  N  -0.2303048990349718
  N560     1.0000 0.09410  0.74655  0.37544  Biso   1.000  N  -0.2277676151081365
  C1033    1.0000 0.62100  0.28400  0.38013  Biso   1.000  C  0.1472405596172113
  N561     1.0000 0.64520  0.29038  0.38420  Biso   1.000  N  -0.2272241612084026
  N562     1.0000 0.65462  0.31123  0.37440  Biso   1.000  N  -0.1555071729735532
  C1034    1.0000 0.64020  0.32662  0.36023  Biso   1.000  C  0.3166777917610792
  N563     1.0000 0.61592  0.32023  0.35633  Biso   1.000  N  -0.1524633432351943
  N564     1.0000 0.60652  0.29931  0.36603  Biso   1.000  N  -0.2272241612084026
  C1035    1.0000 0.61085  0.26067  0.39042  Biso   1.000  C  0.1544342359644664
  N565     1.0000 0.58771  0.25261  0.38386  Biso   1.000  N  -0.2298671013259737
  N566     1.0000 0.57880  0.23112  0.39274  Biso   1.000  N  -0.2290003791244508
  C1036    1.0000 0.59262  0.21690  0.40861  Biso   1.000  C  0.2505797930276468
  N567     1.0000 0.61572  0.22511  0.41525  Biso   1.000  N  -0.2303048990349718
  N568     1.0000 0.62468  0.24653  0.40629  Biso   1.000  N  -0.2272241612084026
  C1037    1.0000 0.62124  0.78430  0.88022  Biso   1.000  C  0.1472405596172113
  N569     1.0000 0.64547  0.79056  0.88427  Biso   1.000  N  -0.2277676151081365
  N570     1.0000 0.65496  0.81141  0.87455  Biso   1.000  N  -0.1570259460634034
  C1038    1.0000 0.64058  0.82692  0.86048  Biso   1.000  C  0.3166777917610792
  N571     1.0000 0.61625  0.82067  0.85662  Biso   1.000  N  -0.1523748189823301
  N572     1.0000 0.60678  0.79975  0.86624  Biso   1.000  N  -0.2272241612084026
  C1039    1.0000 0.61102  0.76095  0.89039  Biso   1.000  C  0.1544738041701660
  N573     1.0000 0.58788  0.75296  0.88374  Biso   1.000  N  -0.2298671013259737
  N574     1.0000 0.57891  0.73145  0.89251  Biso   1.000  N  -0.2290003791244508
  C1040    1.0000 0.59268  0.71714  0.90835  Biso   1.000  C  0.2476361797552317
  N575     1.0000 0.61577  0.72529  0.91508  Biso   1.000  N  -0.2303048990349718
  N576     1.0000 0.62479  0.74673  0.90623  Biso   1.000  N  -0.2277676151081365
  C1041    1.0000 0.87907  0.28422  0.12000  Biso   1.000  C  0.1544738041701660
  N577     1.0000 0.89356  0.29958  0.13405  Biso   1.000  N  -0.2272241612084026
  N578     1.0000 0.88415  0.32050  0.14374  Biso   1.000  N  -0.1524633432351943
  C1042    1.0000 0.85985  0.32683  0.13988  Biso   1.000  C  0.3166777917610792
  N579     1.0000 0.84542  0.31140  0.12577  Biso   1.000  N  -0.1555071729735532
  N580     1.0000 0.85485  0.29055  0.11597  Biso   1.000  N  -0.2272241612084026
  C1043    1.0000 0.88922  0.26090  0.10970  Biso   1.000  C  0.1544342359644664
  N581     1.0000 0.87537  0.24675  0.09387  Biso   1.000  N  -0.2277676151081365
  N582     1.0000 0.88432  0.22533  0.08489  Biso   1.000  N  -0.2303048990349718
  C1044    1.0000 0.90744  0.21714  0.09147  Biso   1.000  C  0.2476361797552317
  N583     1.0000 0.92129  0.23137  0.10731  Biso   1.000  N  -0.2249774230986708
  N584     1.0000 0.91239  0.25286  0.11621  Biso   1.000  N  -0.2303048990349718
  C1045    1.0000 0.87983  0.78427  0.62066  Biso   1.000  C  0.1544738041701660
  N585     1.0000 0.88392  0.79053  0.64489  Biso   1.000  N  -0.2272241612084026
  N586     1.0000 0.87411  0.81132  0.65442  Biso   1.000  N  -0.1570259460634034
  C1046    1.0000 0.85992  0.82677  0.64010  Biso   1.000  C  0.3166777917610792
  N587     1.0000 0.85600  0.82051  0.61578  Biso   1.000  N  -0.1523748189823301
  N588     1.0000 0.86570  0.79964  0.60627  Biso   1.000  N  -0.2272241612084026
  C1047    1.0000 0.89017  0.76101  0.61040  Biso   1.000  C  0.1546024787288588
  N589     1.0000 0.88356  0.75298  0.58726  Biso   1.000  N  -0.2303048990349718
  N590     1.0000 0.89251  0.73154  0.57827  Biso   1.000  N  -0.2248888988458065
  C1048    1.0000 0.90850  0.71737  0.59201  Biso   1.000  C  0.2476361797552317
  N591     1.0000 0.91518  0.72557  0.61510  Biso   1.000  N  -0.2298671013259737
  N592     1.0000 0.90616  0.74692  0.62414  Biso   1.000  N  -0.2277676151081365
  C1049    1.0000 0.37990  0.28427  0.62099  Biso   1.000  C  0.1544342359644664
  N593     1.0000 0.38412  0.29048  0.64521  Biso   1.000  N  -0.2272241612084026
  N594     1.0000 0.37444  0.31130  0.65482  Biso   1.000  N  -0.1555071729735532
  C1050    1.0000 0.36025  0.32683  0.64057  Biso   1.000  C  0.3166777917610792
  N595     1.0000 0.35622  0.32062  0.61626  Biso   1.000  N  -0.1523748189823301
  N596     1.0000 0.36579  0.29973  0.60667  Biso   1.000  N  -0.2272241612084026
  C1051    1.0000 0.39006  0.26096  0.61066  Biso   1.000  C  0.1544342359644664
  N597     1.0000 0.38322  0.25293  0.58759  Biso   1.000  N  -0.2298671013259737
  N598     1.0000 0.39200  0.23145  0.57854  Biso   1.000  N  -0.2249774230986708
  C1052    1.0000 0.40806  0.21724  0.59215  Biso   1.000  C  0.2476361797552317
  N599     1.0000 0.41497  0.22542  0.61517  Biso   1.000  N  -0.2303048990349718
  N600     1.0000 0.40610  0.24682  0.62428  Biso   1.000  N  -0.2272241612084026
  C1053    1.0000 0.37994  0.78428  0.12106  Biso   1.000  C  0.1544738041701660
  N601     1.0000 0.36585  0.79963  0.10660  Biso   1.000  N  -0.2298671013259737
  N602     1.0000 0.35617  0.82054  0.11605  Biso   1.000  N  -0.1523748189823301
  C1054    1.0000 0.36006  0.82686  0.14036  Biso   1.000  C  0.3166777917610792
  N603     1.0000 0.37422  0.81143  0.15474  Biso   1.000  N  -0.1566877427591413
  N604     1.0000 0.38401  0.79060  0.14527  Biso   1.000  N  -0.2277676151081365
  C1055    1.0000 0.39022  0.76096  0.11086  Biso   1.000  C  0.1550042362190145
  N605     1.0000 0.40615  0.74684  0.12464  Biso   1.000  N  -0.2272241612084026
  N606     1.0000 0.41511  0.72544  0.11563  Biso   1.000  N  -0.2303048990349718
  C1056    1.0000 0.40842  0.71723  0.09255  Biso   1.000  C  0.2476361797552317
  N607     1.0000 0.39248  0.73143  0.07878  Biso   1.000  N  -0.2248888988458065
  N608     1.0000 0.38360  0.75291  0.08773  Biso   1.000  N  -0.2298671013259737
  C1057    1.0000 0.87878  0.71578  0.88021  Biso   1.000  C  0.1544738041701660
  N609     1.0000 0.89322  0.70038  0.86616  Biso   1.000  N  -0.2272241612084026
  N610     1.0000 0.88374  0.67947  0.85651  Biso   1.000  N  -0.1523748189823301
  C1058    1.0000 0.85943  0.67319  0.86040  Biso   1.000  C  0.3166777917610792
  N611     1.0000 0.84506  0.68866  0.87453  Biso   1.000  N  -0.1555071729735532
  N612     1.0000 0.85455  0.70950  0.88429  Biso   1.000  N  -0.2272241612084026
  C1059    1.0000 0.88901  0.73911  0.89042  Biso   1.000  C  0.1546024787288588
  N613     1.0000 0.87526  0.75330  0.90632  Biso   1.000  N  -0.2272241612084026
  N614     1.0000 0.88429  0.77473  0.91519  Biso   1.000  N  -0.2303048990349718
  C1060    1.0000 0.90737  0.78290  0.90843  Biso   1.000  C  0.2476361797552317
  N615     1.0000 0.92111  0.76863  0.89253  Biso   1.000  N  -0.2253236656618047
  N616     1.0000 0.91213  0.74713  0.88374  Biso   1.000  N  -0.2298671013259737
  C1061    1.0000 0.87892  0.21581  0.38015  Biso   1.000  C  0.1544738041701660
  N617     1.0000 0.89348  0.20049  0.36613  Biso   1.000  N  -0.2298671013259737
  N618     1.0000 0.88412  0.17957  0.35638  Biso   1.000  N  -0.1524633432351943
  C1062    1.0000 0.85981  0.17322  0.36012  Biso   1.000  C  0.3166777917610792
  N619     1.0000 0.84531  0.18862  0.37420  Biso   1.000  N  -0.1564386181393898
  N620     1.0000 0.85468  0.20946  0.38406  Biso   1.000  N  -0.2272241612084026
  C1063    1.0000 0.88902  0.23913  0.39050  Biso   1.000  C  0.1544738041701660
  N621     1.0000 0.87510  0.25329  0.40628  Biso   1.000  N  -0.2272241612084026
  N622     1.0000 0.88403  0.27471  0.41528  Biso   1.000  N  -0.2303048990349718
  C1064    1.0000 0.90717  0.28290  0.40877  Biso   1.000  C  0.2476361797552317
  N623     1.0000 0.92108  0.26865  0.39300  Biso   1.000  N  -0.2249774230986708
  N624     1.0000 0.91220  0.24716  0.38408  Biso   1.000  N  -0.2272241612084026
  C1065    1.0000 0.37955  0.71595  0.37913  Biso   1.000  C  0.1472405596172113
  N625     1.0000 0.38379  0.70964  0.35495  Biso   1.000  N  -0.2277676151081365
  N626     1.0000 0.37415  0.68876  0.34543  Biso   1.000  N  -0.1555071729735532
  C1066    1.0000 0.35998  0.67327  0.35974  Biso   1.000  C  0.3166777917610792
  N627     1.0000 0.35591  0.67958  0.38402  Biso   1.000  N  -0.1523667797234582
  N628     1.0000 0.36545  0.70054  0.39352  Biso   1.000  N  -0.2298671013259737
  C1067    1.0000 0.38971  0.73930  0.38937  Biso   1.000  C  0.1546024787288588
  N629     1.0000 0.38299  0.74736  0.41247  Biso   1.000  N  -0.2303048990349718
  N630     1.0000 0.39181  0.76886  0.42144  Biso   1.000  N  -0.2248888988458065
  C1068    1.0000 0.40778  0.78307  0.40771  Biso   1.000  C  0.2505797930276468
  N631     1.0000 0.41455  0.77487  0.38465  Biso   1.000  N  -0.2303048990349718
  N632     1.0000 0.40565  0.75345  0.37563  Biso   1.000  N  -0.2272241612084026
  C1069    1.0000 0.37878  0.21566  0.88001  Biso   1.000  C  0.1544342359644664
  N633     1.0000 0.39329  0.20028  0.86600  Biso   1.000  N  -0.2272241612084026
  N634     1.0000 0.38388  0.17935  0.85634  Biso   1.000  N  -0.1524633432351943
  C1070    1.0000 0.35957  0.17302  0.86017  Biso   1.000  C  0.3166777917610792
  N635     1.0000 0.34514  0.18846  0.87426  Biso   1.000  N  -0.1570259460634034
  N636     1.0000 0.35456  0.20932  0.88403  Biso   1.000  N  -0.2272241612084026
  C1071    1.0000 0.38893  0.23902  0.89023  Biso   1.000  C  0.1544342359644664
  N637     1.0000 0.37509  0.25321  0.90605  Biso   1.000  N  -0.2272241612084026
  N638     1.0000 0.38406  0.27465  0.91496  Biso   1.000  N  -0.2303048990349718
  C1072    1.0000 0.40717  0.28283  0.90832  Biso   1.000  C  0.2505797930276468
  N639     1.0000 0.42100  0.26856  0.89249  Biso   1.000  N  -0.2249774230986708
  N640     1.0000 0.41208  0.24705  0.88367  Biso   1.000  N  -0.2272241612084026
  C1073    1.0000 0.12022  0.71598  0.12084  Biso   1.000  C  0.1546024787288588
  N641     1.0000 0.13437  0.70066  0.10640  Biso   1.000  N  -0.2298671013259737
  N642     1.0000 0.14402  0.67973  0.11583  Biso   1.000  N  -0.1523748189823301
  C1074    1.0000 0.14004  0.67335  0.14011  Biso   1.000  C  0.3166777917610792
  N643     1.0000 0.12583  0.68875  0.15448  Biso   1.000  N  -0.1566877427591413
  N644     1.0000 0.11607  0.70960  0.14503  Biso   1.000  N  -0.2272241612084026
  C1075    1.0000 0.10995  0.73931  0.11066  Biso   1.000  C  0.1546024787288588
  N645     1.0000 0.09401  0.75341  0.12445  Biso   1.000  N  -0.2272241612084026
  N646     1.0000 0.08503  0.77482  0.11546  Biso   1.000  N  -0.2300151738477859
  C1076    1.0000 0.09173  0.78305  0.09239  Biso   1.000  C  0.2505797930276468
  N647     1.0000 0.10768  0.76887  0.07861  Biso   1.000  N  -0.2249774230986708
  N648     1.0000 0.11657  0.74739  0.08754  Biso   1.000  N  -0.2298671013259737
  C1077    1.0000 0.12086  0.21537  0.61977  Biso   1.000  C  0.1544342359644664
  N649     1.0000 0.14512  0.20913  0.61580  Biso   1.000  N  -0.2272241612084026
  N650     1.0000 0.15462  0.18834  0.62566  Biso   1.000  N  -0.1555071729735532
  C1078    1.0000 0.14022  0.17288  0.63977  Biso   1.000  C  0.3166777917610792
  N651     1.0000 0.11588  0.17912  0.64356  Biso   1.000  N  -0.1523748189823301
  N652     1.0000 0.10640  0.19998  0.63381  Biso   1.000  N  -0.2272241612084026
  C1079    1.0000 0.11064  0.23866  0.60945  Biso   1.000  C  0.1544342359644664
  N653     1.0000 0.08746  0.24663  0.61598  Biso   1.000  N  -0.2298671013259737
  N654     1.0000 0.07849  0.26810  0.60708  Biso   1.000  N  -0.2249774230986708
  C1080    1.0000 0.09230  0.28236  0.59124  Biso   1.000  C  0.2476361797552317
  N655     1.0000 0.11543  0.27423  0.58464  Biso   1.000  N  -0.2298671013259737
  N656     1.0000 0.12445  0.25284  0.59361  Biso   1.000  N  -0.2277676151081365
  C1081    1.0000 0.62052  0.71556  0.62062  Biso   1.000  C  0.1472405596172113
  N657     1.0000 0.61642  0.70938  0.64486  Biso   1.000  N  -0.2277676151081365
  N658     1.0000 0.62617  0.68859  0.65445  Biso   1.000  N  -0.1570259460634034
  C1082    1.0000 0.64031  0.67306  0.64016  Biso   1.000  C  0.3166777917610792
  N659     1.0000 0.64424  0.67924  0.61583  Biso   1.000  N  -0.1523748189823301
  N660     1.0000 0.63460  0.70011  0.60626  Biso   1.000  N  -0.2272241612084026
  C1083    1.0000 0.61022  0.73881  0.61031  Biso   1.000  C  0.1544738041701660
  N661     1.0000 0.61685  0.74681  0.58716  Biso   1.000  N  -0.2303048990349718
  N662     1.0000 0.60792  0.76824  0.57814  Biso   1.000  N  -0.2248888988458065
  C1084    1.0000 0.59193  0.78244  0.59185  Biso   1.000  C  0.2476361797552317
  N663     1.0000 0.58524  0.77428  0.61495  Biso   1.000  N  -0.2303048990349718
  N664     1.0000 0.59425  0.75293  0.62402  Biso   1.000  N  -0.2277676151081365
  C1085    1.0000 0.62081  0.21598  0.12008  Biso   1.000  C  0.1544738041701660
  N665     1.0000 0.60633  0.20068  0.13421  Biso   1.000  N  -0.2298671013259737
  N666     1.0000 0.61574  0.17977  0.14393  Biso   1.000  N  -0.1523748189823301
  C1086    1.0000 0.64002  0.17339  0.14003  Biso   1.000  C  0.3166777917610792
  N667     1.0000 0.65444  0.18877  0.12584  Biso   1.000  N  -0.1524633432351943
  N668     1.0000 0.64501  0.20961  0.11602  Biso   1.000  N  -0.2272241612084026
  C1087    1.0000 0.61066  0.23929  0.10974  Biso   1.000  C  0.1544738041701660
  N669     1.0000 0.62449  0.25339  0.09385  Biso   1.000  N  -0.2272241612084026
  N670     1.0000 0.61553  0.27480  0.08483  Biso   1.000  N  -0.2297660492280343
  C1088    1.0000 0.59243  0.28302  0.09144  Biso   1.000  C  0.2476361797552317
  N671     1.0000 0.57860  0.26883  0.10734  Biso   1.000  N  -0.2248888988458065
  N672     1.0000 0.58751  0.24735  0.11627  Biso   1.000  N  -0.2298671013259737
  C1089    1.0000 0.28429  0.11953  0.87874  Biso   1.000  C  0.1544342359644664
  N673     1.0000 0.29067  0.11548  0.85453  Biso   1.000  N  -0.2272241612084026
  N674     1.0000 0.31149  0.12534  0.84510  Biso   1.000  N  -0.1566877427591413
  C1090    1.0000 0.32684  0.13955  0.85951  Biso   1.000  C  0.3166777917610792
  N675     1.0000 0.32047  0.14343  0.88380  Biso   1.000  N  -0.1524633432351943
  N676     1.0000 0.29958  0.13368  0.89321  Biso   1.000  N  -0.2272241612084026
  C1091    1.0000 0.26098  0.10921  0.88890  Biso   1.000  C  0.1544342359644664
  N677     1.0000 0.25292  0.11580  0.91203  Biso   1.000  N  -0.2272241612084026
  N678     1.0000 0.23143  0.10693  0.92095  Biso   1.000  N  -0.2290003791244508
  C1092    1.0000 0.21720  0.09105  0.90715  Biso   1.000  C  0.2476361797552317
  N679     1.0000 0.22541  0.08437  0.88406  Biso   1.000  N  -0.2297660492280343
  N680     1.0000 0.24684  0.09332  0.87509  Biso   1.000  N  -0.2272241612084026
  C1093    1.0000 0.28415  0.62072  0.37969  Biso   1.000  C  0.1472405596172113
  N681     1.0000 0.29967  0.60638  0.36568  Biso   1.000  N  -0.2272241612084026
  N682     1.0000 0.32060  0.61595  0.35617  Biso   1.000  N  -0.1523748189823301
  C1094    1.0000 0.32677  0.64028  0.36016  Biso   1.000  C  0.3166777917610792
  N683     1.0000 0.31119  0.65455  0.37425  Biso   1.000  N  -0.1570259460634034
  N684     1.0000 0.29033  0.64496  0.38387  Biso   1.000  N  -0.2272241612084026
  C1095    1.0000 0.26081  0.61041  0.38978  Biso   1.000  C  0.1544738041701660
  N685     1.0000 0.24657  0.62410  0.40568  Biso   1.000  N  -0.2277676151081365
  N686     1.0000 0.22516  0.61501  0.41451  Biso   1.000  N  -0.2298671013259737
  C1096    1.0000 0.21704  0.59193  0.40771  Biso   1.000  C  0.2476361797552317
  N687     1.0000 0.23134  0.57824  0.39179  Biso   1.000  N  -0.2248888988458065
  N688     1.0000 0.25284  0.58729  0.38304  Biso   1.000  N  -0.2303048990349718
  C1097    1.0000 0.78468  0.11975  0.37891  Biso   1.000  C  0.1544738041701660
  N689     1.0000 0.79092  0.11576  0.35466  Biso   1.000  N  -0.2272241612084026
  N690     1.0000 0.81172  0.12559  0.34515  Biso   1.000  N  -0.1555071729735532
  C1098    1.0000 0.82719  0.13970  0.35954  Biso   1.000  C  0.3166777917610792
  N691     1.0000 0.82096  0.14349  0.38388  Biso   1.000  N  -0.1524633432351943
  N692     1.0000 0.80009  0.13377  0.39336  Biso   1.000  N  -0.2272241612084026
  C1099    1.0000 0.76137  0.10949  0.38915  Biso   1.000  C  0.1544342359644664
  N693     1.0000 0.75341  0.11605  0.41232  Biso   1.000  N  -0.2298671013259737
  N694     1.0000 0.73193  0.10721  0.42131  Biso   1.000  N  -0.2249774230986708
  C1100    1.0000 0.71763  0.09138  0.40752  Biso   1.000  C  0.2476361797552317
  N695     1.0000 0.72575  0.08474  0.38439  Biso   1.000  N  -0.2298671013259737
  N696     1.0000 0.74715  0.09366  0.37536  Biso   1.000  N  -0.2277676151081365
  C1101    1.0000 0.78405  0.61996  0.87920  Biso   1.000  C  0.1544738041701660
  N697     1.0000 0.79943  0.63405  0.89363  Biso   1.000  N  -0.2272241612084026
  N698     1.0000 0.82033  0.64372  0.88415  Biso   1.000  N  -0.1523748189823301
  C1102    1.0000 0.82662  0.63982  0.85984  Biso   1.000  C  0.3166777917610792
  N699     1.0000 0.81117  0.62566  0.84548  Biso   1.000  N  -0.1566877427591413
  N700     1.0000 0.79035  0.61588  0.85498  Biso   1.000  N  -0.2272241612084026
  C1103    1.0000 0.76074  0.60971  0.88943  Biso   1.000  C  0.1544342359644664
  N701     1.0000 0.74656  0.59383  0.87565  Biso   1.000  N  -0.2272241612084026
  N702     1.0000 0.72515  0.58490  0.88468  Biso   1.000  N  -0.2303048990349718
  C1104    1.0000 0.71700  0.59157  0.90778  Biso   1.000  C  0.2505797930276468
  N703     1.0000 0.73126  0.60746  0.92155  Biso   1.000  N  -0.2249774230986708
  N704     1.0000 0.75274  0.61631  0.91258  Biso   1.000  N  -0.2298671013259737
  C1105    1.0000 0.28412  0.87901  0.11989  Biso   1.000  C  0.1544738041701660
  N705     1.0000 0.29950  0.89345  0.13396  Biso   1.000  N  -0.2272241612084026
  N706     1.0000 0.32040  0.88398  0.14364  Biso   1.000  N  -0.1523748189823301
  C1106    1.0000 0.32669  0.85967  0.13976  Biso   1.000  C  0.3166777917610792
  N707     1.0000 0.31124  0.84530  0.12561  Biso   1.000  N  -0.1570259460634034
  N708     1.0000 0.29042  0.85478  0.11583  Biso   1.000  N  -0.2272241612084026
  C1107    1.0000 0.26081  0.88922  0.10963  Biso   1.000  C  0.1546024787288588
  N709     1.0000 0.24665  0.87546  0.09371  Biso   1.000  N  -0.2272241612084026
  N710     1.0000 0.22525  0.88448  0.08478  Biso   1.000  N  -0.2298671013259737
  C1108    1.0000 0.21707  0.90757  0.09148  Biso   1.000  C  0.2498783920585014
  N711     1.0000 0.23130  0.92133  0.10740  Biso   1.000  N  -0.2249774230986708
  N712     1.0000 0.25278  0.91236  0.11625  Biso   1.000  N  -0.2298671013259737
  C1109    1.0000 0.28432  0.37910  0.62055  Biso   1.000  C  0.1544738041701660
  N713     1.0000 0.29057  0.35488  0.61641  Biso   1.000  N  -0.2277676151081365
  N714     1.0000 0.31141  0.34535  0.62611  Biso   1.000  N  -0.1570259460634034
  C1110    1.0000 0.32691  0.35966  0.64025  Biso   1.000  C  0.3166777917610792
  N715     1.0000 0.32066  0.38397  0.64422  Biso   1.000  N  -0.1523748189823301
  N716     1.0000 0.29975  0.39349  0.63462  Biso   1.000  N  -0.2272241612084026
  C1111    1.0000 0.26101  0.38936  0.61032  Biso   1.000  C  0.1544738041701660
  N717     1.0000 0.25296  0.41246  0.61701  Biso   1.000  N  -0.2298671013259737
  N718     1.0000 0.23149  0.42146  0.60813  Biso   1.000  N  -0.2248888988458065
  C1112    1.0000 0.21732  0.40775  0.59212  Biso   1.000  C  0.2476361797552317
  N719     1.0000 0.22553  0.38469  0.58536  Biso   1.000  N  -0.2298671013259737
  N720     1.0000 0.24691  0.37565  0.59432  Biso   1.000  N  -0.2277676151081365
  C1113    1.0000 0.78383  0.87889  0.62006  Biso   1.000  C  0.1544738041701660
  N721     1.0000 0.79018  0.85471  0.61584  Biso   1.000  N  -0.2272241612084026
  N722     1.0000 0.81107  0.84523  0.62550  Biso   1.000  N  -0.1566877427591413
  C1114    1.0000 0.82652  0.85956  0.63968  Biso   1.000  C  0.3166777917610792
  N723     1.0000 0.82017  0.88383  0.64372  Biso   1.000  N  -0.1523748189823301
  N724     1.0000 0.79921  0.89330  0.63417  Biso   1.000  N  -0.2298671013259737
  C1115    1.0000 0.76045  0.88909  0.60993  Biso   1.000  C  0.1544342359644664
  N725     1.0000 0.75236  0.91216  0.61672  Biso   1.000  N  -0.2298671013259737
  N726     1.0000 0.73084  0.92112  0.60796  Biso   1.000  N  -0.2290003791244508
  C1116    1.0000 0.71663  0.90742  0.59198  Biso   1.000  C  0.2476361797552317
  N727     1.0000 0.72487  0.88440  0.58512  Biso   1.000  N  -0.2303048990349718
  N728     1.0000 0.74632  0.87539  0.59396  Biso   1.000  N  -0.2277676151081365
  C1117    1.0000 0.78458  0.38012  0.12103  Biso   1.000  C  0.1472405596172113
  N729     1.0000 0.80000  0.36610  0.10659  Biso   1.000  N  -0.2272241612084026
  N730     1.0000 0.82089  0.35642  0.11608  Biso   1.000  N  -0.1523748189823301
  C1118    1.0000 0.82713  0.36027  0.14041  Biso   1.000  C  0.3166777917610792
  N731     1.0000 0.81164  0.37437  0.15478  Biso   1.000  N  -0.1566877427591413
  N732     1.0000 0.79082  0.38415  0.14528  Biso   1.000  N  -0.2272241612084026
  C1119    1.0000 0.76127  0.39037  0.11081  Biso   1.000  C  0.1546024787288588
  N733     1.0000 0.74707  0.40621  0.12461  Biso   1.000  N  -0.2272241612084026
  N734     1.0000 0.72566  0.41513  0.11559  Biso   1.000  N  -0.2303048990349718
  C1120    1.0000 0.71752  0.40849  0.09247  Biso   1.000  C  0.2476361797552317
  N735     1.0000 0.73180  0.39264  0.07868  Biso   1.000  N  -0.2290003791244508
  N736     1.0000 0.75328  0.38379  0.08764  Biso   1.000  N  -0.2298671013259737
  C1121    1.0000 0.71529  0.12008  0.12118  Biso   1.000  C  0.1544738041701660
  N737     1.0000 0.69984  0.13405  0.10672  Biso   1.000  N  -0.2272241612084026
  N738     1.0000 0.67895  0.14373  0.11620  Biso   1.000  N  -0.1524633432351943
  C1122    1.0000 0.67274  0.13996  0.14055  Biso   1.000  C  0.3166777917610792
  N739     1.0000 0.68827  0.12592  0.15495  Biso   1.000  N  -0.1566877427591413
  N740     1.0000 0.70908  0.11613  0.14545  Biso   1.000  N  -0.2272241612084026
  C1123    1.0000 0.73860  0.10983  0.11095  Biso   1.000  C  0.1472405596172113
  N741     1.0000 0.75283  0.09404  0.12477  Biso   1.000  N  -0.2272241612084026
  N742     1.0000 0.77424  0.08512  0.11574  Biso   1.000  N  -0.2303048990349718
  C1124    1.0000 0.78234  0.09172  0.09259  Biso   1.000  C  0.2476361797552317
  N743     1.0000 0.76802  0.10751  0.07878  Biso   1.000  N  -0.2248888988458065
  N744     1.0000 0.74653  0.11635  0.08776  Biso   1.000  N  -0.2298671013259737
  C1125    1.0000 0.71646  0.62101  0.62036  Biso   1.000  C  0.1544342359644664
  N745     1.0000 0.71007  0.64517  0.61609  Biso   1.000  N  -0.2277676151081365
  N746     1.0000 0.68916  0.65463  0.62572  Biso   1.000  N  -0.1566877427591413
  C1126    1.0000 0.67372  0.64029  0.63991  Biso   1.000  C  0.3166777917610792
  N747     1.0000 0.68011  0.61604  0.64402  Biso   1.000  N  -0.1523748189823301
  N748     1.0000 0.70110  0.60660  0.63450  Biso   1.000  N  -0.2298671013259737
  C1127    1.0000 0.73984  0.61082  0.61021  Biso   1.000  C  0.1544342359644664
  N749     1.0000 0.74796  0.58777  0.61700  Biso   1.000  N  -0.2298671013259737
  N750     1.0000 0.76948  0.57883  0.60820  Biso   1.000  N  -0.2248888988458065
  C1128    1.0000 0.78365  0.59254  0.59218  Biso   1.000  C  0.2476361797552317
  N751     1.0000 0.77538  0.61555  0.58533  Biso   1.000  N  -0.2298671013259737
  N752     1.0000 0.75394  0.62454  0.59421  Biso   1.000  N  -0.2272241612084026
  C1129    1.0000 0.21573  0.11970  0.62137  Biso   1.000  C  0.1544738041701660
  N753     1.0000 0.20039  0.13375  0.60687  Biso   1.000  N  -0.2272241612084026
  N754     1.0000 0.17945  0.14342  0.61625  Biso   1.000  N  -0.1524633432351943
  C1130    1.0000 0.17308  0.13955  0.64054  Biso   1.000  C  0.3166777917610792
  N755     1.0000 0.18848  0.12542  0.65498  Biso   1.000  N  -0.1566877427591413
  N756     1.0000 0.20935  0.11565  0.64558  Biso   1.000  N  -0.2272241612084026
  C1131    1.0000 0.23910  0.10948  0.61124  Biso   1.000  C  0.1544342359644664
  N757     1.0000 0.25327  0.09363  0.62506  Biso   1.000  N  -0.2272241612084026
  N758     1.0000 0.27473  0.08475  0.61611  Biso   1.000  N  -0.2300151738477859
  C1132    1.0000 0.28295  0.09146  0.59303  Biso   1.000  C  0.2505797930276468
  N759     1.0000 0.26869  0.10730  0.57921  Biso   1.000  N  -0.2249774230986708
  N760     1.0000 0.24716  0.11610  0.58812  Biso   1.000  N  -0.2298671013259737
  C1133    1.0000 0.21594  0.62097  0.11986  Biso   1.000  C  0.1544738041701660
  N761     1.0000 0.20971  0.64520  0.11574  Biso   1.000  N  -0.2272241612084026
  N762     1.0000 0.18886  0.65475  0.12542  Biso   1.000  N  -0.1555071729735532
  C1134    1.0000 0.17332  0.64042  0.13952  Biso   1.000  C  0.3166777917610792
  N763     1.0000 0.17953  0.61610  0.14344  Biso   1.000  N  -0.1523748189823301
  N764     1.0000 0.20046  0.60657  0.13387  Biso   1.000  N  -0.2298671013259737
  C1135    1.0000 0.23929  0.61070  0.10974  Biso   1.000  C  0.1544738041701660
  N765     1.0000 0.24727  0.58758  0.11646  Biso   1.000  N  -0.2298671013259737
  N766     1.0000 0.26879  0.57857  0.10772  Biso   1.000  N  -0.2249774230986708
  C1136    1.0000 0.28309  0.59229  0.09184  Biso   1.000  C  0.2476361797552317
  N767     1.0000 0.27496  0.61537  0.08505  Biso   1.000  N  -0.2303048990349718
  N768     1.0000 0.25352  0.62443  0.09387  Biso   1.000  N  -0.2272241612084026
  C1137    1.0000 0.71594  0.88013  0.87935  Biso   1.000  C  0.1472405596172113
  N769     1.0000 0.70057  0.86600  0.89375  Biso   1.000  N  -0.2272241612084026
  N770     1.0000 0.67967  0.85634  0.88426  Biso   1.000  N  -0.1523748189823301
  C1138    1.0000 0.67337  0.86031  0.85996  Biso   1.000  C  0.3166777917610792
  N771     1.0000 0.68880  0.87451  0.84563  Biso   1.000  N  -0.1566877427591413
  N772     1.0000 0.70963  0.88427  0.85514  Biso   1.000  N  -0.2272241612084026
  C1139    1.0000 0.73925  0.89036  0.88958  Biso   1.000  C  0.1544342359644664
  N773     1.0000 0.75340  0.90630  0.87583  Biso   1.000  N  -0.2272241612084026
  N774     1.0000 0.77480  0.91522  0.88486  Biso   1.000  N  -0.2298671013259737
  C1140    1.0000 0.78300  0.90849  0.90793  Biso   1.000  C  0.2476361797552317
  N775     1.0000 0.76878  0.89255  0.92167  Biso   1.000  N  -0.2248888988458065
  N776     1.0000 0.74729  0.88370  0.91270  Biso   1.000  N  -0.2303048990349718
  C1141    1.0000 0.71536  0.38016  0.37901  Biso   1.000  C  0.1452971999081412
  N777     1.0000 0.70911  0.38412  0.35476  Biso   1.000  N  -0.2272241612084026
  N778     1.0000 0.68833  0.37425  0.34526  Biso   1.000  N  -0.1524633432351943
  C1142    1.0000 0.67289  0.36010  0.35966  Biso   1.000  C  0.3166777917610792
  N779     1.0000 0.67914  0.35632  0.38399  Biso   1.000  N  -0.1524633432351943
  N780     1.0000 0.70000  0.36609  0.39346  Biso   1.000  N  -0.2272241612084026
  C1143    1.0000 0.73863  0.39051  0.38923  Biso   1.000  C  0.1544342359644664
  N781     1.0000 0.74660  0.38401  0.41242  Biso   1.000  N  -0.2298671013259737
  N782     1.0000 0.76805  0.39292  0.42139  Biso   1.000  N  -0.2290003791244508
  C1144    1.0000 0.78232  0.40877  0.40759  Biso   1.000  C  0.2476361797552317
  N783     1.0000 0.77419  0.41536  0.38445  Biso   1.000  N  -0.2303048990349718
  N784     1.0000 0.75281  0.40637  0.37543  Biso   1.000  N  -0.2272241612084026
  C1145    1.0000 0.21576  0.87909  0.37999  Biso   1.000  C  0.1472405596172113
  N785     1.0000 0.20030  0.89348  0.36596  Biso   1.000  N  -0.2272241612084026
  N786     1.0000 0.17941  0.88395  0.35633  Biso   1.000  N  -0.1523748189823301
  C1146    1.0000 0.17321  0.85961  0.36022  Biso   1.000  C  0.3166777917610792
  N787     1.0000 0.18874  0.84529  0.37433  Biso   1.000  N  -0.1566877427591413
  N788     1.0000 0.20955  0.85485  0.38407  Biso   1.000  N  -0.2277676151081365
  C1147    1.0000 0.23906  0.88938  0.39020  Biso   1.000  C  0.1544738041701660
  N789     1.0000 0.25325  0.87566  0.40612  Biso   1.000  N  -0.2277676151081365
  N790     1.0000 0.27464  0.88473  0.41503  Biso   1.000  N  -0.2298671013259737
  C1148    1.0000 0.28278  0.90782  0.40829  Biso   1.000  C  0.2476361797552317
  N791     1.0000 0.26852  0.92153  0.39235  Biso   1.000  N  -0.2249774230986708
  N792     1.0000 0.24705  0.91251  0.38353  Biso   1.000  N  -0.2272241612084026
  C1149    1.0000 0.21540  0.38043  0.87888  Biso   1.000  C  0.1472405596172113
  N793     1.0000 0.20918  0.38449  0.85463  Biso   1.000  N  -0.2272241612084026
  N794     1.0000 0.18840  0.37469  0.84507  Biso   1.000  N  -0.1566877427591413
  C1150    1.0000 0.17292  0.36052  0.85939  Biso   1.000  C  0.3166777917610792
  N795     1.0000 0.17913  0.35664  0.88372  Biso   1.000  N  -0.1524633432351943
  N796     1.0000 0.19998  0.36634  0.89326  Biso   1.000  N  -0.2272241612084026
  C1151    1.0000 0.23868  0.39067  0.88917  Biso   1.000  C  0.1544738041701660
  N797     1.0000 0.24664  0.38401  0.91232  Biso   1.000  N  -0.2303048990349718
  N798     1.0000 0.26811  0.39284  0.92136  Biso   1.000  N  -0.2248888988458065
  C1152    1.0000 0.28240  0.40875  0.90765  Biso   1.000  C  0.2476361797552317
  N799     1.0000 0.27428  0.41549  0.88455  Biso   1.000  N  -0.2303048990349718
  N800     1.0000 0.25289  0.40658  0.87546  Biso   1.000  N  -0.2272241612084026
